-------------------------------------------------------
          Amber 18 PMEMD                              2018
          -------------------------------------------------------

  [-O]verwriting output

File Assignments:

 Here is the input file:

1 ns solute restrained NPT equilibration using Langevin thermostat and MC baros
&cntrl
  irest     = 1,
  ntx       = 5,
  ig        = -1,
  dt        = 0.002,
  nstlim    = 500000,
  nscm      = 500,
  ntr       = 1,
  restraint_wt  = 1.0,
  restraintmask = '!:WAT & !@H',
  ntb       = 2,
  ntp       = 1,
  barostat  = 2,
  pres0     = 1.0,
  mcbarint  = 100,
  comp      = 44.6,
  taup      = 1.0,
  ntt       = 3,
  temp0     = 298.0,
  gamma_ln  = 1.0,
  ntf       = 2,
  ntc       = 2,
  cut       = 10.0,
  ntpr      = 500,
  ntxo      = 2,
  ntwr      = 500000,
  ioutfm    = 1,
  ntwx      = 500,
  iwrap     = 1,
&end

Note: ig = -1. Setting random seed to   858719 based on wallclock time in
      microseconds and disabling the synchronization of random numbers
      between tasks to improve performance.

--------------------------------------------------------------------------------
   1.  RESOURCE   USE:
--------------------------------------------------------------------------------

 getting box info from netcdf restart file
 NATOM  =   73422 NTYPES =      21 NBONH =   53623 MBONA  =   19841
 NTHETH =    6629 MTHETA =    3974 NPHIH =   13450 MPHIA  =   12677
 NHPARM =       0 NPARM  =       0 NNB   =  150392 NRES   =   17271
 NBONA  =   19841 NTHETA =    3974 NPHIA =   12677 NUMBND =      93
 NUMANG =     213 NPTRA  =     223 NATYP =      47 NPHB   =       0
 IFBOX  =       2 NMXRS  =      39 IFCAP =       0 NEXTRA =   16902
 NCOPY  =       0

     BOX TYPE: TRUNCATED OCTAHEDRON

--------------------------------------------------------------------------------
   2.  CONTROL  DATA  FOR  THE  RUN
--------------------------------------------------------------------------------

default_name

General flags:
     imin    =       0, nmropt  =       0

Nature and format of input:
     ntx     =       5, irest   =       1, ntrx    =       1

Nature and format of output:
     ntxo    =       2, ntpr    =     500, ntrx    =       1, ntwr    =  500000
     iwrap   =       1, ntwx    =     500, ntwv    =       0, ntwe    =       0
     ioutfm  =       1, ntwprt  =       0, idecomp =       0, rbornstat=      0

Potential function:
     ntf     =       2, ntb     =       2, igb     =       0, nsnb    =      25
     ipol    =       0, gbsa    =       0, iesp    =       0
     dielc   =   1.00000, cut     =  10.00000, intdiel =   1.00000

Frozen or restrained atoms:
     ibelly  =       0, ntr     =       1
     restraint_wt =   1.00000

Molecular dynamics:
     nstlim  =    500000, nscm    =         0, nrespa  =         1
     t       =   0.00000, dt      =   0.00200, vlimit  =  20.00000

Langevin dynamics temperature regulation:
     ig      =  858719
     temp0   = 298.00000, tempi   =   0.00000, gamma_ln=   1.00000

Pressure regulation:
     ntp     =       1
     pres0   =   1.00000, comp    =  44.60000, taup    =   1.00000
     Monte-Carlo Barostat:
     mcbarint  =     100

SHAKE:
     ntc     =       2, jfastw  =       0
     tol     =   0.00001

Extra-points options:
     frameon =       1, chngmask=       1

Ewald parameters:
     verbose =       0, ew_type =       0, nbflag  =       1, use_pme =       1
     vdwmeth =       1, eedmeth =       1, netfrc  =       1
     Box X =   93.714   Box Y =   93.714   Box Z =   93.714
     Alpha =  109.471   Beta  =  109.471   Gamma =  109.471
     NFFT1 =   96       NFFT2 =   96       NFFT3 =   96
     Cutoff=   10.000   Tol   =0.100E-04
     Ewald Coefficient =  0.27511
     Interpolation order =    4

    LOADING THE CONSTRAINED ATOMS AS GROUPS

   5.  REFERENCE ATOM COORDINATES

  default_name
     Mask !:WAT & !@H; matches  5461 atoms

--------------------------------------------------------------------------------
   3.  ATOMIC COORDINATES AND VELOCITIES
--------------------------------------------------------------------------------

default_name
 begin time read from input coords =    20.000 ps

 Number of triangulated 3-point waters found:    16902

     Sum of charges from parm topology file =   0.00009263
     Forcing neutrality...

--------------------------------------------------------------------------------
   4.  RESULTS
 NSTEP =      500   TIME(PS) =      21.000  TEMP(K) =   297.02  PRESS =     0.0
 Etot   =   -184542.3410  EKtot   =     34215.4586  EPtot      =   -218757.7996
 BOND   =      1111.9670  ANGLE   =      2988.6697  DIHED      =      2110.6495
 UB     =         0.0000  IMP     =         0.0000  CMAP       =       293.0175
 1-4 NB =      1280.8617  1-4 EEL =     12510.2152  VDWAALS    =     29110.5376
 EELEC  =   -268654.8821  EHBOND  =         0.0000  RESTRAINT  =       491.1644
 EAMBER (non-restraint)  =   -219248.9640
 EKCMT  =         0.0000  VIRIAL  =         0.0000  VOLUME     =    625354.6573
                                                    Density    =         0.9183
 Ewald error estimate:   0.4655E-04
 ------------------------------------------------------------------------------

      A V E R A G E S   O V E R    1000 S T E P S

 NSTEP =   500000   TIME(PS) =    1020.000  TEMP(K) =   298.03  PRESS =     0.0
 Etot   =   -187199.7925  EKtot   =     34331.4286  EPtot      =   -221531.2211
 BOND   =      1124.3274  ANGLE   =      3004.9067  DIHED      =      2101.9486
 UB     =         0.0000  IMP     =         0.0000  CMAP       =       299.4339
 1-4 NB =      1278.4211  1-4 EEL =     12479.2971  VDWAALS    =     26800.1422
 EELEC  =   -269166.8375  EHBOND  =         0.0000  RESTRAINT  =       547.1394
 EAMBER (non-restraint)  =   -222078.3605
 EKCMT  =         0.0000  VIRIAL  =         0.0000  VOLUME     =    560700.5493
                                                    Density    =         1.0243
 Ewald error estimate:   0.8589E-04
 ------------------------------------------------------------------------------

      R M S  F L U C T U A T I O N S

 NSTEP =   500000   TIME(PS) =    1020.000  TEMP(K) =     1.20  PRESS =     0.0
 Etot   =       335.8140  EKtot   =       138.0717  EPtot      =       300.2365
 BOND   =        27.9857  ANGLE   =        40.5930  DIHED      =        18.5513
 UB     =         0.0000  IMP     =         0.0000  CMAP       =         6.6114
 1-4 NB =        14.7669  1-4 EEL =        40.7704  VDWAALS    =       272.1677
 EELEC  =       388.3574  EHBOND  =         0.0000  RESTRAINT  =        14.9715
 EAMBER (non-restraint)  =       285.2650
 EKCMT  =         0.0000  VIRIAL  =         0.0000  VOLUME     =      4965.9655
                                                    Density    =         0.0085
 Ewald error estimate:   0.6210E-04
 ------------------------------------------------------------------------------
