-------------------------------------------------------
          Amber 18 PMEMD                              2018
          -------------------------------------------------------

  [-O]verwriting output

File Assignments:

 Here is the input file:

1 ns unrestrained NPT equilibration using Langevin thermostat and MC barostat
&cntrl
  irest     = 1,
  ntx       = 5,
  ig        = -1,
  dt        = 0.002,
  nstlim    = 500000,
  nscm      = 500,
  ntr       = 0,
  ntb       = 2,
  ntp       = 1,
  barostat  = 2,
  pres0     = 1.0,
  mcbarint  = 100,
  comp      = 44.6,
  taup      = 1.0,
  ntt       = 3,
  temp0     = 298.0,
  gamma_ln  = 1.0,
  ntf       = 2,
  ntc       = 2,
  cut       = 10.0,
  ntpr      = 500,
  ntxo      = 2,
  ntwr      = 500000,
  ioutfm    = 1,
  ntwx      = 500,
  iwrap     = 1,
&end

Note: ig = -1. Setting random seed to   165254 based on wallclock time in
      microseconds and disabling the synchronization of random numbers
      between tasks to improve performance.

--------------------------------------------------------------------------------
   1.  RESOURCE   USE:
--------------------------------------------------------------------------------

 getting box info from netcdf restart file
 NATOM  =   73422 NTYPES =      21 NBONH =   53623 MBONA  =   19841
 NTHETH =    6629 MTHETA =    3974 NPHIH =   13450 MPHIA  =   12677
 NHPARM =       0 NPARM  =       0 NNB   =  150392 NRES   =   17271
 NBONA  =   19841 NTHETA =    3974 NPHIA =   12677 NUMBND =      93
 NUMANG =     213 NPTRA  =     223 NATYP =      47 NPHB   =       0
 IFBOX  =       2 NMXRS  =      39 IFCAP =       0 NEXTRA =   16902
 NCOPY  =       0

     BOX TYPE: TRUNCATED OCTAHEDRON

--------------------------------------------------------------------------------
   2.  CONTROL  DATA  FOR  THE  RUN
--------------------------------------------------------------------------------

default_name

General flags:
     imin    =       0, nmropt  =       0

Nature and format of input:
     ntx     =       5, irest   =       1, ntrx    =       1

Nature and format of output:
     ntxo    =       2, ntpr    =     500, ntrx    =       1, ntwr    =  500000
     iwrap   =       1, ntwx    =     500, ntwv    =       0, ntwe    =       0
     ioutfm  =       1, ntwprt  =       0, idecomp =       0, rbornstat=      0

Potential function:
     ntf     =       2, ntb     =       2, igb     =       0, nsnb    =      25
     ipol    =       0, gbsa    =       0, iesp    =       0
     dielc   =   1.00000, cut     =  10.00000, intdiel =   1.00000

Frozen or restrained atoms:
     ibelly  =       0, ntr     =       0

Molecular dynamics:
     nstlim  =    500000, nscm    =       500, nrespa  =         1
     t       =   0.00000, dt      =   0.00200, vlimit  =  20.00000

Langevin dynamics temperature regulation:
     ig      =  165254
     temp0   = 298.00000, tempi   =   0.00000, gamma_ln=   1.00000

Pressure regulation:
     ntp     =       1
     pres0   =   1.00000, comp    =  44.60000, taup    =   1.00000
     Monte-Carlo Barostat:
     mcbarint  =     100

SHAKE:
     ntc     =       2, jfastw  =       0
     tol     =   0.00001

Extra-points options:
     frameon =       1, chngmask=       1

Ewald parameters:
     verbose =       0, ew_type =       0, nbflag  =       1, use_pme =       1
     vdwmeth =       1, eedmeth =       1, netfrc  =       1
     Box X =   89.933   Box Y =   89.933   Box Z =   89.933
     Alpha =  109.471   Beta  =  109.471   Gamma =  109.471
     NFFT1 =   90       NFFT2 =   90       NFFT3 =   90
     Cutoff=   10.000   Tol   =0.100E-04
     Ewald Coefficient =  0.27511
     Interpolation order =    4

--------------------------------------------------------------------------------
   3.  ATOMIC COORDINATES AND VELOCITIES
--------------------------------------------------------------------------------

default_name
 begin time read from input coords =  1020.000 ps

 Number of triangulated 3-point waters found:    16902

     Sum of charges from parm topology file =   0.00009263
     Forcing neutrality...

--------------------------------------------------------------------------------
   4.  RESULTS
 NSTEP =      500   TIME(PS) =    1021.000  TEMP(K) =   297.02  PRESS =     0.0
 Etot   =   -187966.5929  EKtot   =     34215.1615  EPtot      =   -222181.7544
 BOND   =      1126.4229  ANGLE   =      3023.6657  DIHED      =      2162.8078
 UB     =         0.0000  IMP     =         0.0000  CMAP       =       309.0603
 1-4 NB =      1303.2810  1-4 EEL =     12464.6637  VDWAALS    =     26665.7838
 EELEC  =   -269237.4397  EHBOND  =         0.0000  RESTRAINT  =         0.0000
 EKCMT  =         0.0000  VIRIAL  =         0.0000  VOLUME     =    559939.2297
                                                    Density    =         1.0256
 Ewald error estimate:   0.3651E-04
 ------------------------------------------------------------------------------

      A V E R A G E S   O V E R    1000 S T E P S

 NSTEP =   500000   TIME(PS) =    2020.000  TEMP(K) =   298.03  PRESS =     0.0
 Etot   =   -188186.6843  EKtot   =     34331.6745  EPtot      =   -222518.3588
 BOND   =      1119.8672  ANGLE   =      3024.4301  DIHED      =      2066.9423
 UB     =         0.0000  IMP     =         0.0000  CMAP       =       295.3933
 1-4 NB =      1291.2637  1-4 EEL =     12543.6165  VDWAALS    =     26666.4776
 EELEC  =   -269526.3493  EHBOND  =         0.0000  RESTRAINT  =         0.0000
 EKCMT  =         0.0000  VIRIAL  =         0.0000  VOLUME     =    557353.1394
                                                    Density    =         1.0304
 Ewald error estimate:   0.8862E-04
 ------------------------------------------------------------------------------

      R M S  F L U C T U A T I O N S

 NSTEP =   500000   TIME(PS) =    2020.000  TEMP(K) =     1.23  PRESS =     0.0
 Etot   =       270.7027  EKtot   =       141.6971  EPtot      =       236.0149
 BOND   =        28.7583  ANGLE   =        41.0029  DIHED      =        28.0710
 UB     =         0.0000  IMP     =         0.0000  CMAP       =         9.8587
 1-4 NB =        15.5247  1-4 EEL =        45.5350  VDWAALS    =       252.6525
 EELEC  =       391.0205  EHBOND  =         0.0000  RESTRAINT  =         0.0000
 EKCMT  =         0.0000  VIRIAL  =         0.0000  VOLUME     =      1074.1354
                                                    Density    =         0.0020
 Ewald error estimate:   0.6852E-04
 ------------------------------------------------------------------------------
