-------------------------------------------------------
          Amber 18 PMEMD                              2018
          -------------------------------------------------------

  [-O]verwriting output

File Assignments:

 Here is the input file:

1 ns solute restrained NPT equilibration using Langevin thermostat and MC baros
&cntrl
  irest     = 1,
  ntx       = 5,
  ig        = -1,
  dt        = 0.002,
  nstlim    = 500000,
  nscm      = 500,
  ntr       = 1,
  restraint_wt  = 1.0,
  restraintmask = '!:WAT & !@H',
  ntb       = 2,
  ntp       = 1,
  barostat  = 2,
  pres0     = 1.0,
  mcbarint  = 100,
  comp      = 44.6,
  taup      = 1.0,
  ntt       = 3,
  temp0     = 298.0,
  gamma_ln  = 1.0,
  ntf       = 2,
  ntc       = 2,
  cut       = 10.0,
  ntpr      = 500,
  ntxo      = 2,
  ntwr      = 500000,
  ioutfm    = 1,
  ntwx      = 500,
  iwrap     = 1,
&end

Note: ig = -1. Setting random seed to   274865 based on wallclock time in
      microseconds and disabling the synchronization of random numbers
      between tasks to improve performance.

--------------------------------------------------------------------------------
   1.  RESOURCE   USE:
--------------------------------------------------------------------------------

 getting box info from netcdf restart file
 NATOM  =  150373 NTYPES =      34 NBONH =  111209 MBONA  =   39057
 NTHETH =    6691 MTHETA =    4014 NPHIH =   13555 MPHIA  =   12752
 NHPARM =       0 NPARM  =       0 NNB   =  285149 NRES   =   36609
 NBONA  =   39057 NTHETA =    4014 NPHIA =   12752 NUMBND =     114
 NUMANG =     249 NPTRA  =     234 NATYP =      65 NPHB   =       0
 IFBOX  =       2 NMXRS  =      39 IFCAP =       0 NEXTRA =   36088
 NCOPY  =       0

     BOX TYPE: TRUNCATED OCTAHEDRON

--------------------------------------------------------------------------------
   2.  CONTROL  DATA  FOR  THE  RUN
--------------------------------------------------------------------------------

default_name

General flags:
     imin    =       0, nmropt  =       0

Nature and format of input:
     ntx     =       5, irest   =       1, ntrx    =       1

Nature and format of output:
     ntxo    =       2, ntpr    =     500, ntrx    =       1, ntwr    =  500000
     iwrap   =       1, ntwx    =     500, ntwv    =       0, ntwe    =       0
     ioutfm  =       1, ntwprt  =       0, idecomp =       0, rbornstat=      0

Potential function:
     ntf     =       2, ntb     =       2, igb     =       0, nsnb    =      25
     ipol    =       0, gbsa    =       0, iesp    =       0
     dielc   =   1.00000, cut     =  10.00000, intdiel =   1.00000

Frozen or restrained atoms:
     ibelly  =       0, ntr     =       1
     restraint_wt =   1.00000

Molecular dynamics:
     nstlim  =    500000, nscm    =         0, nrespa  =         1
     t       =   0.00000, dt      =   0.00200, vlimit  =  20.00000

Langevin dynamics temperature regulation:
     ig      =  274865
     temp0   = 298.00000, tempi   =   0.00000, gamma_ln=   1.00000

Pressure regulation:
     ntp     =       1
     pres0   =   1.00000, comp    =  44.60000, taup    =   1.00000
     Monte-Carlo Barostat:
     mcbarint  =     100

SHAKE:
     ntc     =       2, jfastw  =       0
     tol     =   0.00001

Extra-points options:
     frameon =       1, chngmask=       1

Ewald parameters:
     verbose =       0, ew_type =       0, nbflag  =       1, use_pme =       1
     vdwmeth =       1, eedmeth =       1, netfrc  =       1
     Box X =  117.317   Box Y =  117.317   Box Z =  117.317
     Alpha =  109.471   Beta  =  109.471   Gamma =  109.471
     NFFT1 =  120       NFFT2 =  120       NFFT3 =  120
     Cutoff=   10.000   Tol   =0.100E-04
     Ewald Coefficient =  0.27511
     Interpolation order =    4

    LOADING THE CONSTRAINED ATOMS AS GROUPS

   5.  REFERENCE ATOM COORDINATES

  default_name
     Mask !:WAT & !@H; matches  5667 atoms

--------------------------------------------------------------------------------
   3.  ATOMIC COORDINATES AND VELOCITIES
--------------------------------------------------------------------------------

default_name
 begin time read from input coords =    20.000 ps

 Number of triangulated 3-point waters found:    36088

     Sum of charges from parm topology file =  -0.00080309
     Forcing neutrality...

--------------------------------------------------------------------------------
   4.  RESULTS
 NSTEP =      500   TIME(PS) =      21.000  TEMP(K) =   297.08  PRESS =     0.0
 Etot   =   -400146.6024  EKtot   =     68376.6073  EPtot      =   -468523.2097
 BOND   =      1145.7064  ANGLE   =      2894.0952  DIHED      =      2047.5714
 UB     =         0.0000  IMP     =         0.0000  CMAP       =       324.1873
 1-4 NB =      1280.3535  1-4 EEL =     12330.1204  VDWAALS    =     61824.8077
 EELEC  =   -550924.0249  EHBOND  =         0.0000  RESTRAINT  =       553.9731
 EAMBER (non-restraint)  =   -469077.1829
 EKCMT  =         0.0000  VIRIAL  =         0.0000  VOLUME     =   1242354.5430
                                                    Density    =         0.9307
 Ewald error estimate:   0.7991E-04
 ------------------------------------------------------------------------------

      A V E R A G E S   O V E R    1000 S T E P S

 NSTEP =   500000   TIME(PS) =    1020.000  TEMP(K) =   298.04  PRESS =     0.0
 Etot   =   -403702.5668  EKtot   =     68598.5785  EPtot      =   -472301.1453
 BOND   =      1130.5232  ANGLE   =      2964.6446  DIHED      =      2034.5164
 UB     =         0.0000  IMP     =         0.0000  CMAP       =       318.0178
 1-4 NB =      1293.6403  1-4 EEL =     12343.2864  VDWAALS    =     61811.5447
 EELEC  =   -554874.1064  EHBOND  =         0.0000  RESTRAINT  =       676.7878
 EAMBER (non-restraint)  =   -472977.9331
 EKCMT  =         0.0000  VIRIAL  =         0.0000  VOLUME     =   1137856.0152
                                                    Density    =         1.0162
 Ewald error estimate:   0.6570E-04
 ------------------------------------------------------------------------------

      R M S  F L U C T U A T I O N S

 NSTEP =   500000   TIME(PS) =    1020.000  TEMP(K) =     0.93  PRESS =     0.0
 Etot   =       438.6047  EKtot   =       213.9404  EPtot      =       381.0829
 BOND   =        28.6514  ANGLE   =        41.3183  DIHED      =        19.6198
 UB     =         0.0000  IMP     =         0.0000  CMAP       =         6.9393
 1-4 NB =        13.9997  1-4 EEL =        40.3117  VDWAALS    =       412.1983
 EELEC  =       580.7012  EHBOND  =         0.0000  RESTRAINT  =        17.1778
 EAMBER (non-restraint)  =       363.9050
 EKCMT  =         0.0000  VIRIAL  =         0.0000  VOLUME     =      6484.5491
                                                    Density    =         0.0055
 Ewald error estimate:   0.4859E-04
 ------------------------------------------------------------------------------
