-------------------------------------------------------
          Amber 18 PMEMD                              2018
          -------------------------------------------------------

  [-O]verwriting output

File Assignments:

 Here is the input file:

20 ps solute restrained NVT equilibration using Langevin thermostat
&cntrl
  irest     = 0,
  ntx       = 1,
  ig        = -1,
  dt        = 0.002,
  nstlim    = 10000,
  nscm      = 500,
  ntr       = 1,
  restraint_wt  = 1.0,
  restraintmask = '!:WAT & !@H',
  ntb       = 1,
  ntp       = 0,
  ntt       = 3,
  tempi     = 298.0,
  temp0     = 298.0,
  gamma_ln  = 1.0,
  ntf       = 2,
  ntc       = 2,
  cut       = 10.0,
  ntpr      = 500,
  ntxo      = 2,
  ntwr      = 10000,
  ioutfm    = 1,
  ntwx      = 500,
  iwrap     = 1,
&end

Note: ig = -1. Setting random seed to   982083 based on wallclock time in
      microseconds and disabling the synchronization of random numbers
      between tasks to improve performance.

--------------------------------------------------------------------------------
   1.  RESOURCE   USE:
--------------------------------------------------------------------------------

 getting box info from netcdf restart file
 NATOM  =  232084 NTYPES =      30 NBONH =  172451 MBONA  =   59446
 NTHETH =    6665 MTHETA =    3969 NPHIH =   13497 MPHIA  =   12678
 NHPARM =       0 NPARM  =       0 NNB   =  427955 NRES   =   57104
 NBONA  =   59446 NTHETA =    3969 NPHIA =   12678 NUMBND =      97
 NUMANG =     211 NPTRA  =     215 NATYP =      55 NPHB   =       0
 IFBOX  =       2 NMXRS  =      36 IFCAP =       0 NEXTRA =   56506
 NCOPY  =       0

     BOX TYPE: TRUNCATED OCTAHEDRON

--------------------------------------------------------------------------------
   2.  CONTROL  DATA  FOR  THE  RUN
--------------------------------------------------------------------------------

default_name

General flags:
     imin    =       0, nmropt  =       0

Nature and format of input:
     ntx     =       1, irest   =       0, ntrx    =       1

Nature and format of output:
     ntxo    =       2, ntpr    =     500, ntrx    =       1, ntwr    =   10000
     iwrap   =       1, ntwx    =     500, ntwv    =       0, ntwe    =       0
     ioutfm  =       1, ntwprt  =       0, idecomp =       0, rbornstat=      0

Potential function:
     ntf     =       2, ntb     =       1, igb     =       0, nsnb    =      25
     ipol    =       0, gbsa    =       0, iesp    =       0
     dielc   =   1.00000, cut     =  10.00000, intdiel =   1.00000

Frozen or restrained atoms:
     ibelly  =       0, ntr     =       1
     restraint_wt =   1.00000

Molecular dynamics:
     nstlim  =     10000, nscm    =         0, nrespa  =         1
     t       =   0.00000, dt      =   0.00200, vlimit  =  20.00000

Langevin dynamics temperature regulation:
     ig      =  982083
     temp0   = 298.00000, tempi   = 298.00000, gamma_ln=   1.00000

SHAKE:
     ntc     =       2, jfastw  =       0
     tol     =   0.00001

Extra-points options:
     frameon =       1, chngmask=       1

Ewald parameters:
     verbose =       0, ew_type =       0, nbflag  =       1, use_pme =       1
     vdwmeth =       1, eedmeth =       1, netfrc  =       1
     Box X =  134.876   Box Y =  134.876   Box Z =  134.876
     Alpha =  109.471   Beta  =  109.471   Gamma =  109.471
     NFFT1 =  144       NFFT2 =  135       NFFT3 =  135
     Cutoff=   10.000   Tol   =0.100E-04
     Ewald Coefficient =  0.27511
     Interpolation order =    4

    LOADING THE CONSTRAINED ATOMS AS GROUPS

   5.  REFERENCE ATOM COORDINATES

  default_name
     Mask !:WAT & !@H; matches  5706 atoms

--------------------------------------------------------------------------------
   3.  ATOMIC COORDINATES AND VELOCITIES
--------------------------------------------------------------------------------

default_name
 begin time read from input coords =     0.000 ps

 Number of triangulated 3-point waters found:    56506

     Sum of charges from parm topology file =   0.00030996
     Forcing neutrality...

--------------------------------------------------------------------------------
   4.  RESULTS
 NSTEP =        0   TIME(PS) =       0.000  TEMP(K) =   443.43  PRESS =     0.0
 Etot   =  -1049066.9619  EKtot   =    156095.0318  EPtot      =  -1205161.9936
 BOND   =       232.1111  ANGLE   =       779.4039  DIHED      =      1588.1921
 UB     =         0.0000  IMP     =         0.0000  CMAP       =       316.5555
 1-4 NB =      1091.6488  1-4 EEL =     13065.7910  VDWAALS    =    232022.7890
 EELEC  =  -1454258.4852  EHBOND  =         0.0000  RESTRAINT  =         0.0000
 Ewald error estimate:   0.1283E-03
 ------------------------------------------------------------------------------

      A V E R A G E S   O V E R      20 S T E P S

 NSTEP =    10000   TIME(PS) =      20.000  TEMP(K) =   293.81  PRESS =     0.0
 Etot   =   -619565.7307  EKtot   =    103426.2641  EPtot      =   -722991.9948
 BOND   =      1112.1894  ANGLE   =      2906.7991  DIHED      =      2042.4920
 UB     =         0.0000  IMP     =         0.0000  CMAP       =       331.0854
 1-4 NB =      1264.8714  1-4 EEL =     13012.9813  VDWAALS    =    104279.9231
 EELEC  =   -848561.9921  EHBOND  =         0.0000  RESTRAINT  =       619.6556
 EAMBER (non-restraint)  =   -723611.6505
 Ewald error estimate:   0.5765E-04
 ------------------------------------------------------------------------------

      R M S  F L U C T U A T I O N S

 NSTEP =    10000   TIME(PS) =      20.000  TEMP(K) =    10.12  PRESS =     0.0
 Etot   =      9534.4064  EKtot   =      3561.0950  EPtot      =      5995.5778
 BOND   =        50.7843  ANGLE   =        94.6160  DIHED      =        25.2850
 UB     =         0.0000  IMP     =         0.0000  CMAP       =         7.1698
 1-4 NB =        14.8386  1-4 EEL =        41.3049  VDWAALS    =      3589.4949
 EELEC  =      9412.8981  EHBOND  =         0.0000  RESTRAINT  =        29.5838
 EAMBER (non-restraint)  =      5965.9939
 Ewald error estimate:   0.4714E-04
 ------------------------------------------------------------------------------
