-------------------------------------------------------
          Amber 18 PMEMD                              2018
          -------------------------------------------------------

  [-O]verwriting output

File Assignments:

 Here is the input file:

1 ns unrestrained NPT equilibration using Langevin thermostat and MC barostat
&cntrl
  irest     = 1,
  ntx       = 5,
  ig        = -1,
  dt        = 0.002,
  nstlim    = 500000,
  nscm      = 500,
  ntr       = 0,
  ntb       = 2,
  ntp       = 1,
  barostat  = 2,
  pres0     = 1.0,
  mcbarint  = 100,
  comp      = 44.6,
  taup      = 1.0,
  ntt       = 3,
  temp0     = 298.0,
  gamma_ln  = 1.0,
  ntf       = 2,
  ntc       = 2,
  cut       = 10.0,
  ntpr      = 500,
  ntxo      = 2,
  ntwr      = 500000,
  ioutfm    = 1,
  ntwx      = 500,
  iwrap     = 1,
&end

Note: ig = -1. Setting random seed to   237257 based on wallclock time in
      microseconds and disabling the synchronization of random numbers
      between tasks to improve performance.

--------------------------------------------------------------------------------
   1.  RESOURCE   USE:
--------------------------------------------------------------------------------

 getting box info from netcdf restart file
 NATOM  =  232084 NTYPES =      30 NBONH =  172451 MBONA  =   59446
 NTHETH =    6665 MTHETA =    3969 NPHIH =   13497 MPHIA  =   12678
 NHPARM =       0 NPARM  =       0 NNB   =  427955 NRES   =   57104
 NBONA  =   59446 NTHETA =    3969 NPHIA =   12678 NUMBND =      97
 NUMANG =     211 NPTRA  =     215 NATYP =      55 NPHB   =       0
 IFBOX  =       2 NMXRS  =      36 IFCAP =       0 NEXTRA =   56506
 NCOPY  =       0

     BOX TYPE: TRUNCATED OCTAHEDRON

--------------------------------------------------------------------------------
   2.  CONTROL  DATA  FOR  THE  RUN
--------------------------------------------------------------------------------

default_name

General flags:
     imin    =       0, nmropt  =       0

Nature and format of input:
     ntx     =       5, irest   =       1, ntrx    =       1

Nature and format of output:
     ntxo    =       2, ntpr    =     500, ntrx    =       1, ntwr    =  500000
     iwrap   =       1, ntwx    =     500, ntwv    =       0, ntwe    =       0
     ioutfm  =       1, ntwprt  =       0, idecomp =       0, rbornstat=      0

Potential function:
     ntf     =       2, ntb     =       2, igb     =       0, nsnb    =      25
     ipol    =       0, gbsa    =       0, iesp    =       0
     dielc   =   1.00000, cut     =  10.00000, intdiel =   1.00000

Frozen or restrained atoms:
     ibelly  =       0, ntr     =       0

Molecular dynamics:
     nstlim  =    500000, nscm    =       500, nrespa  =         1
     t       =   0.00000, dt      =   0.00200, vlimit  =  20.00000

Langevin dynamics temperature regulation:
     ig      =  237257
     temp0   = 298.00000, tempi   =   0.00000, gamma_ln=   1.00000

Pressure regulation:
     ntp     =       1
     pres0   =   1.00000, comp    =  44.60000, taup    =   1.00000
     Monte-Carlo Barostat:
     mcbarint  =     100

SHAKE:
     ntc     =       2, jfastw  =       0
     tol     =   0.00001

Extra-points options:
     frameon =       1, chngmask=       1

Ewald parameters:
     verbose =       0, ew_type =       0, nbflag  =       1, use_pme =       1
     vdwmeth =       1, eedmeth =       1, netfrc  =       1
     Box X =  131.867   Box Y =  131.867   Box Z =  131.867
     Alpha =  109.471   Beta  =  109.471   Gamma =  109.471
     NFFT1 =  144       NFFT2 =  135       NFFT3 =  135
     Cutoff=   10.000   Tol   =0.100E-04
     Ewald Coefficient =  0.27511
     Interpolation order =    4

--------------------------------------------------------------------------------
   3.  ATOMIC COORDINATES AND VELOCITIES
--------------------------------------------------------------------------------

default_name
 begin time read from input coords =  1020.000 ps

 Number of triangulated 3-point waters found:    56506

     Sum of charges from parm topology file =   0.00030996
     Forcing neutrality...

--------------------------------------------------------------------------------
   4.  RESULTS
 NSTEP =      500   TIME(PS) =    1021.000  TEMP(K) =   297.01  PRESS =     0.0
 Etot   =   -620973.2263  EKtot   =    104550.6005  EPtot      =   -725523.8267
 BOND   =      1093.4304  ANGLE   =      2914.1309  DIHED      =      2093.1929
 UB     =         0.0000  IMP     =         0.0000  CMAP       =       337.9406
 1-4 NB =      1303.8985  1-4 EEL =     13052.1688  VDWAALS    =    102716.7191
 EELEC  =   -849035.3078  EHBOND  =         0.0000  RESTRAINT  =         0.0000
 EKCMT  =         0.0000  VIRIAL  =         0.0000  VOLUME     =   1765181.8117
                                                    Density    =         1.0028
 Ewald error estimate:   0.3700E-04
 ------------------------------------------------------------------------------

      A V E R A G E S   O V E R    1000 S T E P S

 NSTEP =   500000   TIME(PS) =    2020.000  TEMP(K) =   298.04  PRESS =     0.0
 Etot   =   -621015.5664  EKtot   =    104915.5403  EPtot      =   -725931.1066
 BOND   =      1114.9276  ANGLE   =      2972.1479  DIHED      =      2028.9921
 UB     =         0.0000  IMP     =         0.0000  CMAP       =       311.1077
 1-4 NB =      1295.0364  1-4 EEL =     13006.8505  VDWAALS    =    103060.2029
 EELEC  =   -849720.3717  EHBOND  =         0.0000  RESTRAINT  =         0.0000
 EKCMT  =         0.0000  VIRIAL  =         0.0000  VOLUME     =   1760043.9451
                                                    Density    =         1.0058
 Ewald error estimate:   0.5303E-04
 ------------------------------------------------------------------------------

      R M S  F L U C T U A T I O N S

 NSTEP =   500000   TIME(PS) =    2020.000  TEMP(K) =     0.72  PRESS =     0.0
 Etot   =       471.9768  EKtot   =       254.2204  EPtot      =       400.6276
 BOND   =        28.3782  ANGLE   =        41.7772  DIHED      =        24.0393
 UB     =         0.0000  IMP     =         0.0000  CMAP       =         9.7752
 1-4 NB =        14.8908  1-4 EEL =        50.2670  VDWAALS    =       459.2679
 EELEC  =       693.4054  EHBOND  =         0.0000  RESTRAINT  =         0.0000
 EKCMT  =         0.0000  VIRIAL  =         0.0000  VOLUME     =      1962.7516
                                                    Density    =         0.0011
 Ewald error estimate:   0.3952E-04
 ------------------------------------------------------------------------------
