-------------------------------------------------------
          Amber 18 PMEMD                              2018
          -------------------------------------------------------

  [-O]verwriting output

File Assignments:

 Here is the input file:

20 ps solute restrained NVT equilibration using Langevin thermostat
&cntrl
  irest     = 0,
  ntx       = 1,
  ig        = -1,
  dt        = 0.002,
  nstlim    = 10000,
  nscm      = 500,
  ntr       = 1,
  restraint_wt  = 1.0,
  restraintmask = '!:WAT & !@H',
  ntb       = 1,
  ntp       = 0,
  ntt       = 3,
  tempi     = 298.0,
  temp0     = 298.0,
  gamma_ln  = 1.0,
  ntf       = 2,
  ntc       = 2,
  cut       = 10.0,
  ntpr      = 500,
  ntxo      = 2,
  ntwr      = 10000,
  ioutfm    = 1,
  ntwx      = 500,
  iwrap     = 1,
&end

Note: ig = -1. Setting random seed to    94012 based on wallclock time in
      microseconds and disabling the synchronization of random numbers
      between tasks to improve performance.

--------------------------------------------------------------------------------
   1.  RESOURCE   USE:
--------------------------------------------------------------------------------

 getting box info from netcdf restart file
 NATOM  =  150373 NTYPES =      34 NBONH =  111209 MBONA  =   39057
 NTHETH =    6691 MTHETA =    4014 NPHIH =   13555 MPHIA  =   12752
 NHPARM =       0 NPARM  =       0 NNB   =  285149 NRES   =   36609
 NBONA  =   39057 NTHETA =    4014 NPHIA =   12752 NUMBND =     114
 NUMANG =     249 NPTRA  =     234 NATYP =      65 NPHB   =       0
 IFBOX  =       2 NMXRS  =      39 IFCAP =       0 NEXTRA =   36088
 NCOPY  =       0

     BOX TYPE: TRUNCATED OCTAHEDRON

--------------------------------------------------------------------------------
   2.  CONTROL  DATA  FOR  THE  RUN
--------------------------------------------------------------------------------

default_name

General flags:
     imin    =       0, nmropt  =       0

Nature and format of input:
     ntx     =       1, irest   =       0, ntrx    =       1

Nature and format of output:
     ntxo    =       2, ntpr    =     500, ntrx    =       1, ntwr    =   10000
     iwrap   =       1, ntwx    =     500, ntwv    =       0, ntwe    =       0
     ioutfm  =       1, ntwprt  =       0, idecomp =       0, rbornstat=      0

Potential function:
     ntf     =       2, ntb     =       1, igb     =       0, nsnb    =      25
     ipol    =       0, gbsa    =       0, iesp    =       0
     dielc   =   1.00000, cut     =  10.00000, intdiel =   1.00000

Frozen or restrained atoms:
     ibelly  =       0, ntr     =       1
     restraint_wt =   1.00000

Molecular dynamics:
     nstlim  =     10000, nscm    =         0, nrespa  =         1
     t       =   0.00000, dt      =   0.00200, vlimit  =  20.00000

Langevin dynamics temperature regulation:
     ig      =   94012
     temp0   = 298.00000, tempi   = 298.00000, gamma_ln=   1.00000

SHAKE:
     ntc     =       2, jfastw  =       0
     tol     =   0.00001

Extra-points options:
     frameon =       1, chngmask=       1

Ewald parameters:
     verbose =       0, ew_type =       0, nbflag  =       1, use_pme =       1
     vdwmeth =       1, eedmeth =       1, netfrc  =       1
     Box X =  117.317   Box Y =  117.317   Box Z =  117.317
     Alpha =  109.471   Beta  =  109.471   Gamma =  109.471
     NFFT1 =  120       NFFT2 =  120       NFFT3 =  120
     Cutoff=   10.000   Tol   =0.100E-04
     Ewald Coefficient =  0.27511
     Interpolation order =    4

    LOADING THE CONSTRAINED ATOMS AS GROUPS

   5.  REFERENCE ATOM COORDINATES

  default_name
     Mask !:WAT & !@H; matches  5667 atoms

--------------------------------------------------------------------------------
   3.  ATOMIC COORDINATES AND VELOCITIES
--------------------------------------------------------------------------------

default_name
 begin time read from input coords =     0.000 ps

 Number of triangulated 3-point waters found:    36088

     Sum of charges from parm topology file =  -0.00080309
     Forcing neutrality...

--------------------------------------------------------------------------------
   4.  RESULTS
 NSTEP =        0   TIME(PS) =       0.000  TEMP(K) =   441.79  PRESS =     0.0
 Etot   =   -676695.3885  EKtot   =    101682.9787  EPtot      =   -778378.3672
 BOND   =       241.1947  ANGLE   =       821.8413  DIHED      =      1590.7286
 UB     =         0.0000  IMP     =         0.0000  CMAP       =       300.2469
 1-4 NB =      1110.0788  1-4 EEL =     12353.2180  VDWAALS    =    145713.9068
 EELEC  =   -940509.5824  EHBOND  =         0.0000  RESTRAINT  =         0.0000
 Ewald error estimate:   0.1767E-03
 ------------------------------------------------------------------------------

      A V E R A G E S   O V E R      20 S T E P S

 NSTEP =    10000   TIME(PS) =      20.000  TEMP(K) =   293.79  PRESS =     0.0
 Etot   =   -402145.1848  EKtot   =     67620.4004  EPtot      =   -469765.5852
 BOND   =      1123.1945  ANGLE   =      2943.9224  DIHED      =      2035.3683
 UB     =         0.0000  IMP     =         0.0000  CMAP       =       320.0439
 1-4 NB =      1277.3120  1-4 EEL =     12331.5194  VDWAALS    =     62466.1949
 EELEC  =   -552836.9551  EHBOND  =         0.0000  RESTRAINT  =       573.8144
 EAMBER (non-restraint)  =   -470339.3996
 Ewald error estimate:   0.7128E-04
 ------------------------------------------------------------------------------

      R M S  F L U C T U A T I O N S

 NSTEP =    10000   TIME(PS) =      20.000  TEMP(K) =    10.19  PRESS =     0.0
 Etot   =      5795.7982  EKtot   =      2346.2848  EPtot      =      3482.3790
 BOND   =        39.7993  ANGLE   =       103.3003  DIHED      =        26.3061
 UB     =         0.0000  IMP     =         0.0000  CMAP       =         6.7737
 1-4 NB =        16.1853  1-4 EEL =        30.0496  VDWAALS    =      2108.8953
 EELEC  =      5405.6593  EHBOND  =         0.0000  RESTRAINT  =        34.1175
 EAMBER (non-restraint)  =      3448.2615
 Ewald error estimate:   0.4849E-04
 ------------------------------------------------------------------------------
