-------------------------------------------------------
          Amber 18 PMEMD                              2018
          -------------------------------------------------------

  [-O]verwriting output

File Assignments:

 Here is the input file:

20 ps solute restrained NVT equilibration using Langevin thermostat
&cntrl
  irest     = 0,
  ntx       = 1,
  ig        = -1,
  dt        = 0.002,
  nstlim    = 10000,
  nscm      = 500,
  ntr       = 1,
  restraint_wt  = 1.0,
  restraintmask = '!:WAT & !@H',
  ntb       = 1,
  ntp       = 0,
  ntt       = 3,
  tempi     = 298.0,
  temp0     = 298.0,
  gamma_ln  = 1.0,
  ntf       = 2,
  ntc       = 2,
  cut       = 10.0,
  ntpr      = 500,
  ntxo      = 2,
  ntwr      = 10000,
  ioutfm    = 1,
  ntwx      = 500,
  iwrap     = 1,
&end

Note: ig = -1. Setting random seed to   847065 based on wallclock time in
      microseconds and disabling the synchronization of random numbers
      between tasks to improve performance.

--------------------------------------------------------------------------------
   1.  RESOURCE   USE:
--------------------------------------------------------------------------------

 getting box info from netcdf restart file
 NATOM  =  147031 NTYPES =      23 NBONH =  108748 MBONA  =   38173
 NTHETH =    6538 MTHETA =    3894 NPHIH =   13247 MPHIA  =   12422
 NHPARM =       0 NPARM  =       0 NNB   =  278736 NRES   =   35802
 NBONA  =   38173 NTHETA =    3894 NPHIA =   12422 NUMBND =      88
 NUMANG =     195 NPTRA  =     208 NATYP =      47 NPHB   =       0
 IFBOX  =       2 NMXRS  =      39 IFCAP =       0 NEXTRA =   35290
 NCOPY  =       0

     BOX TYPE: TRUNCATED OCTAHEDRON

--------------------------------------------------------------------------------
   2.  CONTROL  DATA  FOR  THE  RUN
--------------------------------------------------------------------------------

default_name

General flags:
     imin    =       0, nmropt  =       0

Nature and format of input:
     ntx     =       1, irest   =       0, ntrx    =       1

Nature and format of output:
     ntxo    =       2, ntpr    =     500, ntrx    =       1, ntwr    =   10000
     iwrap   =       1, ntwx    =     500, ntwv    =       0, ntwe    =       0
     ioutfm  =       1, ntwprt  =       0, idecomp =       0, rbornstat=      0

Potential function:
     ntf     =       2, ntb     =       1, igb     =       0, nsnb    =      25
     ipol    =       0, gbsa    =       0, iesp    =       0
     dielc   =   1.00000, cut     =  10.00000, intdiel =   1.00000

Frozen or restrained atoms:
     ibelly  =       0, ntr     =       1
     restraint_wt =   1.00000

Molecular dynamics:
     nstlim  =     10000, nscm    =         0, nrespa  =         1
     t       =   0.00000, dt      =   0.00200, vlimit  =  20.00000

Langevin dynamics temperature regulation:
     ig      =  847065
     temp0   = 298.00000, tempi   = 298.00000, gamma_ln=   1.00000

SHAKE:
     ntc     =       2, jfastw  =       0
     tol     =   0.00001

Extra-points options:
     frameon =       1, chngmask=       1

Ewald parameters:
     verbose =       0, ew_type =       0, nbflag  =       1, use_pme =       1
     vdwmeth =       1, eedmeth =       1, netfrc  =       1
     Box X =  116.392   Box Y =  116.392   Box Z =  116.392
     Alpha =  109.471   Beta  =  109.471   Gamma =  109.471
     NFFT1 =  120       NFFT2 =  120       NFFT3 =  120
     Cutoff=   10.000   Tol   =0.100E-04
     Ewald Coefficient =  0.27511
     Interpolation order =    4

    LOADING THE CONSTRAINED ATOMS AS GROUPS

   5.  REFERENCE ATOM COORDINATES

  default_name
     Mask !:WAT & !@H; matches  5523 atoms

--------------------------------------------------------------------------------
   3.  ATOMIC COORDINATES AND VELOCITIES
--------------------------------------------------------------------------------

default_name
 begin time read from input coords =     0.000 ps

 Number of triangulated 3-point waters found:    35290

     Sum of charges from parm topology file =   0.00019353
     Forcing neutrality...

--------------------------------------------------------------------------------
   4.  RESULTS
 NSTEP =        0   TIME(PS) =       0.000  TEMP(K) =   440.90  PRESS =     0.0
 Etot   =   -662598.9465  EKtot   =     99214.1551  EPtot      =   -761813.1016
 BOND   =       244.2353  ANGLE   =       847.4314  DIHED      =      1593.9110
 UB     =         0.0000  IMP     =         0.0000  CMAP       =       266.4403
 1-4 NB =      1077.0900  1-4 EEL =     12211.9899  VDWAALS    =    143533.7353
 EELEC  =   -921587.9347  EHBOND  =         0.0000  RESTRAINT  =         0.0000
 Ewald error estimate:   0.1393E-03
 ------------------------------------------------------------------------------

      A V E R A G E S   O V E R      20 S T E P S

 NSTEP =    10000   TIME(PS) =      20.000  TEMP(K) =   294.21  PRESS =     0.0
 Etot   =   -393429.9018  EKtot   =     66203.5026  EPtot      =   -459633.4045
 BOND   =      1105.2237  ANGLE   =      2930.6791  DIHED      =      2028.1982
 UB     =         0.0000  IMP     =         0.0000  CMAP       =       291.5760
 1-4 NB =      1236.3744  1-4 EEL =     12191.9242  VDWAALS    =     61126.7134
 EELEC  =   -541084.9712  EHBOND  =         0.0000  RESTRAINT  =       540.8777
 EAMBER (non-restraint)  =   -460174.2822
 Ewald error estimate:   0.5598E-04
 ------------------------------------------------------------------------------

      R M S  F L U C T U A T I O N S

 NSTEP =    10000   TIME(PS) =      20.000  TEMP(K) =    10.24  PRESS =     0.0
 Etot   =      5645.9298  EKtot   =      2305.0214  EPtot      =      3352.5870
 BOND   =        32.2511  ANGLE   =        85.1412  DIHED      =        20.4539
 UB     =         0.0000  IMP     =         0.0000  CMAP       =         5.2004
 1-4 NB =        16.6874  1-4 EEL =        39.5420  VDWAALS    =      1938.0570
 EELEC  =      5146.8985  EHBOND  =         0.0000  RESTRAINT  =        21.8310
 EAMBER (non-restraint)  =      3330.7560
 Ewald error estimate:   0.3894E-04
 ------------------------------------------------------------------------------
