-------------------------------------------------------
          Amber 18 PMEMD                              2018
          -------------------------------------------------------

  [-O]verwriting output

File Assignments:

 Here is the input file:

1 ns solute restrained NPT equilibration using Langevin thermostat and MC baros
&cntrl
  irest     = 1,
  ntx       = 5,
  ig        = -1,
  dt        = 0.002,
  nstlim    = 500000,
  nscm      = 500,
  ntr       = 1,
  restraint_wt  = 1.0,
  restraintmask = '!:WAT & !@H',
  ntb       = 2,
  ntp       = 1,
  barostat  = 2,
  pres0     = 1.0,
  mcbarint  = 100,
  comp      = 44.6,
  taup      = 1.0,
  ntt       = 3,
  temp0     = 298.0,
  gamma_ln  = 1.0,
  ntf       = 2,
  ntc       = 2,
  cut       = 10.0,
  ntpr      = 500,
  ntxo      = 2,
  ntwr      = 500000,
  ioutfm    = 1,
  ntwx      = 500,
  iwrap     = 1,
&end

Note: ig = -1. Setting random seed to   907487 based on wallclock time in
      microseconds.

--------------------------------------------------------------------------------
   1.  RESOURCE   USE:
--------------------------------------------------------------------------------

 getting box info from netcdf restart file
 NATOM  =  147031 NTYPES =      23 NBONH =  108748 MBONA  =   38173
 NTHETH =    6538 MTHETA =    3894 NPHIH =   13247 MPHIA  =   12422
 NHPARM =       0 NPARM  =       0 NNB   =  278736 NRES   =   35802
 NBONA  =   38173 NTHETA =    3894 NPHIA =   12422 NUMBND =      88
 NUMANG =     195 NPTRA  =     208 NATYP =      47 NPHB   =       0
 IFBOX  =       2 NMXRS  =      39 IFCAP =       0 NEXTRA =   35290
 NCOPY  =       0

     BOX TYPE: TRUNCATED OCTAHEDRON

--------------------------------------------------------------------------------
   2.  CONTROL  DATA  FOR  THE  RUN
--------------------------------------------------------------------------------

default_name

General flags:
     imin    =       0, nmropt  =       0

Nature and format of input:
     ntx     =       5, irest   =       1, ntrx    =       1

Nature and format of output:
     ntxo    =       2, ntpr    =     500, ntrx    =       1, ntwr    =  500000
     iwrap   =       1, ntwx    =     500, ntwv    =       0, ntwe    =       0
     ioutfm  =       1, ntwprt  =       0, idecomp =       0, rbornstat=      0

Potential function:
     ntf     =       2, ntb     =       2, igb     =       0, nsnb    =      25
     ipol    =       0, gbsa    =       0, iesp    =       0
     dielc   =   1.00000, cut     =  10.00000, intdiel =   1.00000

Frozen or restrained atoms:
     ibelly  =       0, ntr     =       1
     restraint_wt =   1.00000

Molecular dynamics:
     nstlim  =    500000, nscm    =         0, nrespa  =         1
     t       =   0.00000, dt      =   0.00200, vlimit  =  -1.00000

Langevin dynamics temperature regulation:
     ig      =  907487
     temp0   = 298.00000, tempi   =   0.00000, gamma_ln=   1.00000

Pressure regulation:
     ntp     =       1
     pres0   =   1.00000, comp    =  44.60000, taup    =   1.00000
     Monte-Carlo Barostat:
     mcbarint  =     100

SHAKE:
     ntc     =       2, jfastw  =       0
     tol     =   0.00001

Extra-points options:
     frameon =       1, chngmask=       1

Ewald parameters:
     verbose =       0, ew_type =       0, nbflag  =       1, use_pme =       1
     vdwmeth =       1, eedmeth =       1, netfrc  =       1
     Box X =  116.392   Box Y =  116.392   Box Z =  116.392
     Alpha =  109.471   Beta  =  109.471   Gamma =  109.471
     NFFT1 =  128       NFFT2 =  128       NFFT3 =  128
     Cutoff=   10.000   Tol   =0.100E-04
     Ewald Coefficient =  0.27511
     Interpolation order =    4

    LOADING THE CONSTRAINED ATOMS AS GROUPS

   5.  REFERENCE ATOM COORDINATES

  default_name
     Mask !:WAT & !@H; matches  5523 atoms

--------------------------------------------------------------------------------
   3.  ATOMIC COORDINATES AND VELOCITIES
--------------------------------------------------------------------------------

default_name
 begin time read from input coords =    20.000 ps

 Number of triangulated 3-point waters found:    35290

     Sum of charges from parm topology file =   0.00019353
     Forcing neutrality...

--------------------------------------------------------------------------------
   4.  RESULTS
 NSTEP =      500   TIME(PS) =      21.000  TEMP(K) =   298.75  PRESS =     0.0
 Etot   =   -391351.4246  EKtot   =     67226.3594  EPtot      =   -458577.7840
 BOND   =      1082.3834  ANGLE   =      2923.8497  DIHED      =      2044.3929
 UB     =         0.0000  IMP     =         0.0000  CMAP       =       294.1214
 1-4 NB =      1234.0310  1-4 EEL =     12220.1447  VDWAALS    =     60714.0670
 EELEC  =   -539643.1000  EHBOND  =         0.0000  RESTRAINT  =       552.3259
 EAMBER (non-restraint)  =   -459130.1099
 EKCMT  =         0.0000  VIRIAL  =         0.0000  VOLUME     =   1204646.4136
                                                    Density    =         0.9384
 ------------------------------------------------------------------------------

      A V E R A G E S   O V E R    1000 S T E P S

 NSTEP =   500000   TIME(PS) =    1020.000  TEMP(K) =   298.02  PRESS =     0.0
 Etot   =   -394731.6830  EKtot   =     67061.7579  EPtot      =   -461793.4410
 BOND   =      1109.0756  ANGLE   =      2945.6570  DIHED      =      2027.6445
 UB     =         0.0000  IMP     =         0.0000  CMAP       =       297.0898
 1-4 NB =      1249.8746  1-4 EEL =     12197.1016  VDWAALS    =     60476.9591
 EELEC  =   -542750.2346  EHBOND  =         0.0000  RESTRAINT  =       653.3914
 EAMBER (non-restraint)  =   -462446.8324
 EKCMT  =         0.0000  VIRIAL  =         0.0000  VOLUME     =   1112559.3744
                                                    Density    =         1.0161
 ------------------------------------------------------------------------------

      R M S  F L U C T U A T I O N S

 NSTEP =   500000   TIME(PS) =    1020.000  TEMP(K) =     0.84  PRESS =     0.0
 Etot   =       403.7913  EKtot   =       189.8689  EPtot      =       355.0378
 BOND   =        28.3825  ANGLE   =        41.8277  DIHED      =        19.0062
 UB     =         0.0000  IMP     =         0.0000  CMAP       =         6.8649
 1-4 NB =        13.7069  1-4 EEL =        41.5914  VDWAALS    =       419.3650
 EELEC  =       570.0181  EHBOND  =         0.0000  RESTRAINT  =        17.2164
 EAMBER (non-restraint)  =       337.8214
 EKCMT  =         0.0000  VIRIAL  =         0.0000  VOLUME     =      6178.3845
                                                    Density    =         0.0054
 ------------------------------------------------------------------------------
