-------------------------------------------------------
          Amber 18 PMEMD                              2018
          -------------------------------------------------------

  [-O]verwriting output

File Assignments:

 Here is the input file:

20 ps solute restrained NVT equilibration using Langevin thermostat
&cntrl
  irest     = 0,
  ntx       = 1,
  ig        = -1,
  dt        = 0.002,
  nstlim    = 10000,
  nscm      = 500,
  ntr       = 1,
  restraint_wt  = 1.0,
  restraintmask = '!:WAT & !@H',
  ntb       = 1,
  ntp       = 0,
  ntt       = 3,
  tempi     = 298.0,
  temp0     = 298.0,
  gamma_ln  = 1.0,
  ntf       = 2,
  ntc       = 2,
  cut       = 10.0,
  ntpr      = 500,
  ntxo      = 2,
  ntwr      = 10000,
  ioutfm    = 1,
  ntwx      = 500,
  iwrap     = 1,
&end

Note: ig = -1. Setting random seed to   573007 based on wallclock time in
      microseconds and disabling the synchronization of random numbers
      between tasks to improve performance.

--------------------------------------------------------------------------------
   1.  RESOURCE   USE:
--------------------------------------------------------------------------------

 getting box info from netcdf restart file
 NATOM  =  188749 NTYPES =      34 NBONH =  139964 MBONA  =   48642
 NTHETH =    6691 MTHETA =    4014 NPHIH =   13555 MPHIA  =   12752
 NHPARM =       0 NPARM  =       0 NNB   =  352280 NRES   =   46230
 NBONA  =   48642 NTHETA =    4014 NPHIA =   12752 NUMBND =     114
 NUMANG =     249 NPTRA  =     234 NATYP =      64 NPHB   =       0
 IFBOX  =       2 NMXRS  =      39 IFCAP =       0 NEXTRA =   45673
 NCOPY  =       0

     BOX TYPE: TRUNCATED OCTAHEDRON

--------------------------------------------------------------------------------
   2.  CONTROL  DATA  FOR  THE  RUN
--------------------------------------------------------------------------------

default_name

General flags:
     imin    =       0, nmropt  =       0

Nature and format of input:
     ntx     =       1, irest   =       0, ntrx    =       1

Nature and format of output:
     ntxo    =       2, ntpr    =     500, ntrx    =       1, ntwr    =   10000
     iwrap   =       1, ntwx    =     500, ntwv    =       0, ntwe    =       0
     ioutfm  =       1, ntwprt  =       0, idecomp =       0, rbornstat=      0

Potential function:
     ntf     =       2, ntb     =       1, igb     =       0, nsnb    =      25
     ipol    =       0, gbsa    =       0, iesp    =       0
     dielc   =   1.00000, cut     =  10.00000, intdiel =   1.00000

Frozen or restrained atoms:
     ibelly  =       0, ntr     =       1
     restraint_wt =   1.00000

Molecular dynamics:
     nstlim  =     10000, nscm    =         0, nrespa  =         1
     t       =   0.00000, dt      =   0.00200, vlimit  =  20.00000

Langevin dynamics temperature regulation:
     ig      =  573007
     temp0   = 298.00000, tempi   = 298.00000, gamma_ln=   1.00000

SHAKE:
     ntc     =       2, jfastw  =       0
     tol     =   0.00001

Extra-points options:
     frameon =       1, chngmask=       1

Ewald parameters:
     verbose =       0, ew_type =       0, nbflag  =       1, use_pme =       1
     vdwmeth =       1, eedmeth =       1, netfrc  =       1
     Box X =  126.135   Box Y =  126.135   Box Z =  126.135
     Alpha =  109.471   Beta  =  109.471   Gamma =  109.471
     NFFT1 =  128       NFFT2 =  128       NFFT3 =  128
     Cutoff=   10.000   Tol   =0.100E-04
     Ewald Coefficient =  0.27511
     Interpolation order =    4

    LOADING THE CONSTRAINED ATOMS AS GROUPS

   5.  REFERENCE ATOM COORDINATES

  default_name
     Mask !:WAT & !@H; matches  5703 atoms

--------------------------------------------------------------------------------
   3.  ATOMIC COORDINATES AND VELOCITIES
--------------------------------------------------------------------------------

default_name
 begin time read from input coords =     0.000 ps

 Number of triangulated 3-point waters found:    45673

     Sum of charges from parm topology file =   0.00025051
     Forcing neutrality...

--------------------------------------------------------------------------------
   4.  RESULTS
 NSTEP =        0   TIME(PS) =       0.000  TEMP(K) =   441.86  PRESS =     0.0
 Etot   =   -854353.5272  EKtot   =    126995.1477  EPtot      =   -981348.6749
 BOND   =       242.4064  ANGLE   =       811.8880  DIHED      =      1595.1218
 UB     =         0.0000  IMP     =         0.0000  CMAP       =       288.5829
 1-4 NB =      1112.5420  1-4 EEL =     12344.8194  VDWAALS    =    184258.3232
 EELEC  =  -1182002.3585  EHBOND  =         0.0000  RESTRAINT  =         0.0000
 Ewald error estimate:   0.1235E-03
 ------------------------------------------------------------------------------

      A V E R A G E S   O V E R      20 S T E P S

 NSTEP =    10000   TIME(PS) =      20.000  TEMP(K) =   293.87  PRESS =     0.0
 Etot   =   -506272.9085  EKtot   =     84461.4457  EPtot      =   -590734.3542
 BOND   =      1127.6205  ANGLE   =      2946.0823  DIHED      =      2049.1466
 UB     =         0.0000  IMP     =         0.0000  CMAP       =       308.3134
 1-4 NB =      1283.1949  1-4 EEL =     12322.9344  VDWAALS    =     79882.3502
 EELEC  =   -691260.6977  EHBOND  =         0.0000  RESTRAINT  =       606.7011
 EAMBER (non-restraint)  =   -591341.0553
 Ewald error estimate:   0.5738E-04
 ------------------------------------------------------------------------------

      R M S  F L U C T U A T I O N S

 NSTEP =    10000   TIME(PS) =      20.000  TEMP(K) =    10.11  PRESS =     0.0
 Etot   =      7632.6980  EKtot   =      2907.1300  EPtot      =      4740.0485
 BOND   =        44.8361  ANGLE   =        87.8978  DIHED      =        24.3178
 UB     =         0.0000  IMP     =         0.0000  CMAP       =         6.3746
 1-4 NB =        13.1031  1-4 EEL =        59.7431  VDWAALS    =      2775.2418
 EELEC  =      7337.7647  EHBOND  =         0.0000  RESTRAINT  =        32.3123
 EAMBER (non-restraint)  =      4707.7361
 Ewald error estimate:   0.3842E-04
 ------------------------------------------------------------------------------
