-------------------------------------------------------
          Amber 18 PMEMD                              2018
          -------------------------------------------------------

  [-O]verwriting output

File Assignments:

 Here is the input file:

1 ns solute restrained NPT equilibration using Langevin thermostat and MC baros
&cntrl
  irest     = 1,
  ntx       = 5,
  ig        = -1,
  dt        = 0.002,
  nstlim    = 500000,
  nscm      = 500,
  ntr       = 1,
  restraint_wt  = 1.0,
  restraintmask = '!:WAT & !@H',
  ntb       = 2,
  ntp       = 1,
  barostat  = 2,
  pres0     = 1.0,
  mcbarint  = 100,
  comp      = 44.6,
  taup      = 1.0,
  ntt       = 3,
  temp0     = 298.0,
  gamma_ln  = 1.0,
  ntf       = 2,
  ntc       = 2,
  cut       = 10.0,
  ntpr      = 500,
  ntxo      = 2,
  ntwr      = 500000,
  ioutfm    = 1,
  ntwx      = 500,
  iwrap     = 1,
&end

Note: ig = -1. Setting random seed to   273353 based on wallclock time in
      microseconds and disabling the synchronization of random numbers
      between tasks to improve performance.

--------------------------------------------------------------------------------
   1.  RESOURCE   USE:
--------------------------------------------------------------------------------

 getting box info from netcdf restart file
 NATOM  =  188749 NTYPES =      34 NBONH =  139964 MBONA  =   48642
 NTHETH =    6691 MTHETA =    4014 NPHIH =   13555 MPHIA  =   12752
 NHPARM =       0 NPARM  =       0 NNB   =  352280 NRES   =   46230
 NBONA  =   48642 NTHETA =    4014 NPHIA =   12752 NUMBND =     114
 NUMANG =     249 NPTRA  =     234 NATYP =      64 NPHB   =       0
 IFBOX  =       2 NMXRS  =      39 IFCAP =       0 NEXTRA =   45673
 NCOPY  =       0

     BOX TYPE: TRUNCATED OCTAHEDRON

--------------------------------------------------------------------------------
   2.  CONTROL  DATA  FOR  THE  RUN
--------------------------------------------------------------------------------

default_name

General flags:
     imin    =       0, nmropt  =       0

Nature and format of input:
     ntx     =       5, irest   =       1, ntrx    =       1

Nature and format of output:
     ntxo    =       2, ntpr    =     500, ntrx    =       1, ntwr    =  500000
     iwrap   =       1, ntwx    =     500, ntwv    =       0, ntwe    =       0
     ioutfm  =       1, ntwprt  =       0, idecomp =       0, rbornstat=      0

Potential function:
     ntf     =       2, ntb     =       2, igb     =       0, nsnb    =      25
     ipol    =       0, gbsa    =       0, iesp    =       0
     dielc   =   1.00000, cut     =  10.00000, intdiel =   1.00000

Frozen or restrained atoms:
     ibelly  =       0, ntr     =       1
     restraint_wt =   1.00000

Molecular dynamics:
     nstlim  =    500000, nscm    =         0, nrespa  =         1
     t       =   0.00000, dt      =   0.00200, vlimit  =  20.00000

Langevin dynamics temperature regulation:
     ig      =  273353
     temp0   = 298.00000, tempi   =   0.00000, gamma_ln=   1.00000

Pressure regulation:
     ntp     =       1
     pres0   =   1.00000, comp    =  44.60000, taup    =   1.00000
     Monte-Carlo Barostat:
     mcbarint  =     100

SHAKE:
     ntc     =       2, jfastw  =       0
     tol     =   0.00001

Extra-points options:
     frameon =       1, chngmask=       1

Ewald parameters:
     verbose =       0, ew_type =       0, nbflag  =       1, use_pme =       1
     vdwmeth =       1, eedmeth =       1, netfrc  =       1
     Box X =  126.135   Box Y =  126.135   Box Z =  126.135
     Alpha =  109.471   Beta  =  109.471   Gamma =  109.471
     NFFT1 =  128       NFFT2 =  128       NFFT3 =  128
     Cutoff=   10.000   Tol   =0.100E-04
     Ewald Coefficient =  0.27511
     Interpolation order =    4

    LOADING THE CONSTRAINED ATOMS AS GROUPS

   5.  REFERENCE ATOM COORDINATES

  default_name
     Mask !:WAT & !@H; matches  5703 atoms

--------------------------------------------------------------------------------
   3.  ATOMIC COORDINATES AND VELOCITIES
--------------------------------------------------------------------------------

default_name
 begin time read from input coords =    20.000 ps

 Number of triangulated 3-point waters found:    45673

     Sum of charges from parm topology file =   0.00025051
     Forcing neutrality...

--------------------------------------------------------------------------------
   4.  RESULTS
 NSTEP =      500   TIME(PS) =      21.000  TEMP(K) =   298.42  PRESS =     0.0
 Etot   =   -505089.8562  EKtot   =     85770.0546  EPtot      =   -590859.9108
 BOND   =      1161.1098  ANGLE   =      2950.1687  DIHED      =      2065.2250
 UB     =         0.0000  IMP     =         0.0000  CMAP       =       313.2284
 1-4 NB =      1296.0216  1-4 EEL =     12380.3552  VDWAALS    =     80756.3480
 EELEC  =   -692373.8442  EHBOND  =         0.0000  RESTRAINT  =       591.4766
 EAMBER (non-restraint)  =   -591451.3874
 EKCMT  =         0.0000  VIRIAL  =         0.0000  VOLUME     =   1513385.3736
                                                    Density    =         0.9546
 Ewald error estimate:   0.6282E-04
 ------------------------------------------------------------------------------

      A V E R A G E S   O V E R    1000 S T E P S

 NSTEP =   500000   TIME(PS) =    1020.000  TEMP(K) =   298.00  PRESS =     0.0
 Etot   =   -507802.1596  EKtot   =     85648.6368  EPtot      =   -593450.7964
 BOND   =      1132.6433  ANGLE   =      2960.4623  DIHED      =      2038.2498
 UB     =         0.0000  IMP     =         0.0000  CMAP       =       309.6211
 1-4 NB =      1298.8864  1-4 EEL =     12335.6094  VDWAALS    =     79238.7099
 EELEC  =   -693473.4126  EHBOND  =         0.0000  RESTRAINT  =       708.4341
 EAMBER (non-restraint)  =   -594159.2305
 EKCMT  =         0.0000  VIRIAL  =         0.0000  VOLUME     =   1425977.4415
                                                    Density    =         1.0132
 Ewald error estimate:   0.5951E-04
 ------------------------------------------------------------------------------

      R M S  F L U C T U A T I O N S

 NSTEP =   500000   TIME(PS) =    1020.000  TEMP(K) =     1.19  PRESS =     0.0
 Etot   =       509.2880  EKtot   =       343.1207  EPtot      =       372.5602
 BOND   =        28.6123  ANGLE   =        39.3608  DIHED      =        19.1130
 UB     =         0.0000  IMP     =         0.0000  CMAP       =         6.7828
 1-4 NB =        14.2016  1-4 EEL =        40.9570  VDWAALS    =       423.1557
 EELEC  =       606.4571  EHBOND  =         0.0000  RESTRAINT  =        17.7897
 EAMBER (non-restraint)  =       354.7705
 EKCMT  =         0.0000  VIRIAL  =         0.0000  VOLUME     =      5847.7242
                                                    Density    =         0.0040
 Ewald error estimate:   0.4349E-04
 ------------------------------------------------------------------------------
