-------------------------------------------------------
          Amber 18 PMEMD                              2018
          -------------------------------------------------------

  [-O]verwriting output

File Assignments:

 Here is the input file:

20 ps solute restrained NVT equilibration using Langevin thermostat
&cntrl
  irest     = 0,
  ntx       = 1,
  ig        = -1,
  dt        = 0.002,
  nstlim    = 10000,
  nscm      = 500,
  ntr       = 1,
  restraint_wt  = 1.0,
  restraintmask = '!:WAT & !@H',
  ntb       = 1,
  ntp       = 0,
  ntt       = 3,
  tempi     = 298.0,
  temp0     = 298.0,
  gamma_ln  = 1.0,
  ntf       = 2,
  ntc       = 2,
  cut       = 10.0,
  ntpr      = 500,
  ntxo      = 2,
  ntwr      = 10000,
  ioutfm    = 1,
  ntwx      = 500,
  iwrap     = 1,
&end

Note: ig = -1. Setting random seed to   726567 based on wallclock time in
      microseconds and disabling the synchronization of random numbers
      between tasks to improve performance.

--------------------------------------------------------------------------------
   1.  RESOURCE   USE:
--------------------------------------------------------------------------------

 getting box info from netcdf restart file
 NATOM  =  232203 NTYPES =      34 NBONH =  172523 MBONA  =   59495
 NTHETH =    6691 MTHETA =    4014 NPHIH =   13555 MPHIA  =   12752
 NHPARM =       0 NPARM  =       0 NNB   =  428293 NRES   =   57125
 NBONA  =   59495 NTHETA =    4014 NPHIA =   12752 NUMBND =     114
 NUMANG =     249 NPTRA  =     234 NATYP =      64 NPHB   =       0
 IFBOX  =       2 NMXRS  =      39 IFCAP =       0 NEXTRA =   56526
 NCOPY  =       0

     BOX TYPE: TRUNCATED OCTAHEDRON

--------------------------------------------------------------------------------
   2.  CONTROL  DATA  FOR  THE  RUN
--------------------------------------------------------------------------------

default_name

General flags:
     imin    =       0, nmropt  =       0

Nature and format of input:
     ntx     =       1, irest   =       0, ntrx    =       1

Nature and format of output:
     ntxo    =       2, ntpr    =     500, ntrx    =       1, ntwr    =   10000
     iwrap   =       1, ntwx    =     500, ntwv    =       0, ntwe    =       0
     ioutfm  =       1, ntwprt  =       0, idecomp =       0, rbornstat=      0

Potential function:
     ntf     =       2, ntb     =       1, igb     =       0, nsnb    =      25
     ipol    =       0, gbsa    =       0, iesp    =       0
     dielc   =   1.00000, cut     =  10.00000, intdiel =   1.00000

Frozen or restrained atoms:
     ibelly  =       0, ntr     =       1
     restraint_wt =   1.00000

Molecular dynamics:
     nstlim  =     10000, nscm    =         0, nrespa  =         1
     t       =   0.00000, dt      =   0.00200, vlimit  =  20.00000

Langevin dynamics temperature regulation:
     ig      =  726567
     temp0   = 298.00000, tempi   = 298.00000, gamma_ln=   1.00000

SHAKE:
     ntc     =       2, jfastw  =       0
     tol     =   0.00001

Extra-points options:
     frameon =       1, chngmask=       1

Ewald parameters:
     verbose =       0, ew_type =       0, nbflag  =       1, use_pme =       1
     vdwmeth =       1, eedmeth =       1, netfrc  =       1
     Box X =  134.911   Box Y =  134.911   Box Z =  134.911
     Alpha =  109.471   Beta  =  109.471   Gamma =  109.471
     NFFT1 =  144       NFFT2 =  135       NFFT3 =  135
     Cutoff=   10.000   Tol   =0.100E-04
     Ewald Coefficient =  0.27511
     Interpolation order =    4

    LOADING THE CONSTRAINED ATOMS AS GROUPS

   5.  REFERENCE ATOM COORDINATES

  default_name
     Mask !:WAT & !@H; matches  5745 atoms

--------------------------------------------------------------------------------
   3.  ATOMIC COORDINATES AND VELOCITIES
--------------------------------------------------------------------------------

default_name
 begin time read from input coords =     0.000 ps

 Number of triangulated 3-point waters found:    56526

     Sum of charges from parm topology file =   0.00031007
     Forcing neutrality...

--------------------------------------------------------------------------------
   4.  RESULTS
 NSTEP =        0   TIME(PS) =       0.000  TEMP(K) =   441.76  PRESS =     0.0
 Etot   =  -1051357.7090  EKtot   =    155604.8231  EPtot      =  -1206962.5321
 BOND   =       244.9198  ANGLE   =       819.7697  DIHED      =      1626.5342
 UB     =         0.0000  IMP     =         0.0000  CMAP       =       307.8746
 1-4 NB =      1110.4916  1-4 EEL =     12397.9473  VDWAALS    =    232492.1065
 EELEC  =  -1455962.1759  EHBOND  =         0.0000  RESTRAINT  =         0.0000
 Ewald error estimate:   0.1159E-03
 ------------------------------------------------------------------------------

      A V E R A G E S   O V E R      20 S T E P S

 NSTEP =    10000   TIME(PS) =      20.000  TEMP(K) =   293.82  PRESS =     0.0
 Etot   =   -620764.9002  EKtot   =    103496.0598  EPtot      =   -724260.9600
 BOND   =      1125.7969  ANGLE   =      2959.9113  DIHED      =      2077.9749
 UB     =         0.0000  IMP     =         0.0000  CMAP       =       323.2340
 1-4 NB =      1282.9378  1-4 EEL =     12367.3352  VDWAALS    =    103837.3715
 EELEC  =   -848852.6751  EHBOND  =         0.0000  RESTRAINT  =       617.1535
 EAMBER (non-restraint)  =   -724878.1135
 Ewald error estimate:   0.5636E-04
 ------------------------------------------------------------------------------

      R M S  F L U C T U A T I O N S

 NSTEP =    10000   TIME(PS) =      20.000  TEMP(K) =    10.05  PRESS =     0.0
 Etot   =      9597.8795  EKtot   =      3539.1136  EPtot      =      6080.1183
 BOND   =        42.6930  ANGLE   =       100.4853  DIHED      =        26.4010
 UB     =         0.0000  IMP     =         0.0000  CMAP       =         5.4498
 1-4 NB =        11.7558  1-4 EEL =        35.7110  VDWAALS    =      3742.1408
 EELEC  =      9630.1531  EHBOND  =         0.0000  RESTRAINT  =        23.6740
 EAMBER (non-restraint)  =      6056.4443
 Ewald error estimate:   0.3346E-04
 ------------------------------------------------------------------------------
