-------------------------------------------------------
          Amber 18 PMEMD                              2018
          -------------------------------------------------------

  [-O]verwriting output

File Assignments:

 Here is the input file:

1 ns solute restrained NPT equilibration using Langevin thermostat and MC baros
&cntrl
  irest     = 1,
  ntx       = 5,
  ig        = -1,
  dt        = 0.002,
  nstlim    = 500000,
  nscm      = 500,
  ntr       = 1,
  restraint_wt  = 1.0,
  restraintmask = '!:WAT & !@H',
  ntb       = 2,
  ntp       = 1,
  barostat  = 2,
  pres0     = 1.0,
  mcbarint  = 100,
  comp      = 44.6,
  taup      = 1.0,
  ntt       = 3,
  temp0     = 298.0,
  gamma_ln  = 1.0,
  ntf       = 2,
  ntc       = 2,
  cut       = 10.0,
  ntpr      = 500,
  ntxo      = 2,
  ntwr      = 500000,
  ioutfm    = 1,
  ntwx      = 500,
  iwrap     = 1,
&end

Note: ig = -1. Setting random seed to    86531 based on wallclock time in
      microseconds and disabling the synchronization of random numbers
      between tasks to improve performance.

--------------------------------------------------------------------------------
   1.  RESOURCE   USE:
--------------------------------------------------------------------------------

 getting box info from netcdf restart file
 NATOM  =  232203 NTYPES =      34 NBONH =  172523 MBONA  =   59495
 NTHETH =    6691 MTHETA =    4014 NPHIH =   13555 MPHIA  =   12752
 NHPARM =       0 NPARM  =       0 NNB   =  428293 NRES   =   57125
 NBONA  =   59495 NTHETA =    4014 NPHIA =   12752 NUMBND =     114
 NUMANG =     249 NPTRA  =     234 NATYP =      64 NPHB   =       0
 IFBOX  =       2 NMXRS  =      39 IFCAP =       0 NEXTRA =   56526
 NCOPY  =       0

     BOX TYPE: TRUNCATED OCTAHEDRON

--------------------------------------------------------------------------------
   2.  CONTROL  DATA  FOR  THE  RUN
--------------------------------------------------------------------------------

default_name

General flags:
     imin    =       0, nmropt  =       0

Nature and format of input:
     ntx     =       5, irest   =       1, ntrx    =       1

Nature and format of output:
     ntxo    =       2, ntpr    =     500, ntrx    =       1, ntwr    =  500000
     iwrap   =       1, ntwx    =     500, ntwv    =       0, ntwe    =       0
     ioutfm  =       1, ntwprt  =       0, idecomp =       0, rbornstat=      0

Potential function:
     ntf     =       2, ntb     =       2, igb     =       0, nsnb    =      25
     ipol    =       0, gbsa    =       0, iesp    =       0
     dielc   =   1.00000, cut     =  10.00000, intdiel =   1.00000

Frozen or restrained atoms:
     ibelly  =       0, ntr     =       1
     restraint_wt =   1.00000

Molecular dynamics:
     nstlim  =    500000, nscm    =         0, nrespa  =         1
     t       =   0.00000, dt      =   0.00200, vlimit  =  20.00000

Langevin dynamics temperature regulation:
     ig      =   86531
     temp0   = 298.00000, tempi   =   0.00000, gamma_ln=   1.00000

Pressure regulation:
     ntp     =       1
     pres0   =   1.00000, comp    =  44.60000, taup    =   1.00000
     Monte-Carlo Barostat:
     mcbarint  =     100

SHAKE:
     ntc     =       2, jfastw  =       0
     tol     =   0.00001

Extra-points options:
     frameon =       1, chngmask=       1

Ewald parameters:
     verbose =       0, ew_type =       0, nbflag  =       1, use_pme =       1
     vdwmeth =       1, eedmeth =       1, netfrc  =       1
     Box X =  134.911   Box Y =  134.911   Box Z =  134.911
     Alpha =  109.471   Beta  =  109.471   Gamma =  109.471
     NFFT1 =  144       NFFT2 =  135       NFFT3 =  135
     Cutoff=   10.000   Tol   =0.100E-04
     Ewald Coefficient =  0.27511
     Interpolation order =    4

    LOADING THE CONSTRAINED ATOMS AS GROUPS

   5.  REFERENCE ATOM COORDINATES

  default_name
     Mask !:WAT & !@H; matches  5745 atoms

--------------------------------------------------------------------------------
   3.  ATOMIC COORDINATES AND VELOCITIES
--------------------------------------------------------------------------------

default_name
 begin time read from input coords =    20.000 ps

 Number of triangulated 3-point waters found:    56526

     Sum of charges from parm topology file =   0.00031007
     Forcing neutrality...

--------------------------------------------------------------------------------
   4.  RESULTS
 NSTEP =      500   TIME(PS) =      21.000  TEMP(K) =   298.77  PRESS =     0.0
 Etot   =   -617964.4544  EKtot   =    105237.1604  EPtot      =   -723201.6148
 BOND   =      1128.8928  ANGLE   =      2976.0819  DIHED      =      2092.2621
 UB     =         0.0000  IMP     =         0.0000  CMAP       =       314.9171
 1-4 NB =      1277.3147  1-4 EEL =     12291.6484  VDWAALS    =    102764.2984
 EELEC  =   -846650.2732  EHBOND  =         0.0000  RESTRAINT  =       603.2430
 EAMBER (non-restraint)  =   -723804.8578
 EKCMT  =         0.0000  VIRIAL  =         0.0000  VOLUME     =   1876809.3107
                                                    Density    =         0.9439
 Ewald error estimate:   0.7932E-04
 ------------------------------------------------------------------------------

      A V E R A G E S   O V E R    1000 S T E P S

 NSTEP =   500000   TIME(PS) =    1020.000  TEMP(K) =   298.04  PRESS =     0.0
 Etot   =   -621096.8592  EKtot   =    104980.3066  EPtot      =   -726077.1657
 BOND   =      1132.5779  ANGLE   =      2975.9233  DIHED      =      2064.7157
 UB     =         0.0000  IMP     =         0.0000  CMAP       =       319.6791
 1-4 NB =      1295.3284  1-4 EEL =     12363.7507  VDWAALS    =    103222.3063
 EELEC  =   -850198.5484  EHBOND  =         0.0000  RESTRAINT  =       747.1014
 EAMBER (non-restraint)  =   -726824.2671
 EKCMT  =         0.0000  VIRIAL  =         0.0000  VOLUME     =   1764406.9173
                                                    Density    =         1.0040
 Ewald error estimate:   0.5424E-04
 ------------------------------------------------------------------------------

      R M S  F L U C T U A T I O N S

 NSTEP =   500000   TIME(PS) =    1020.000  TEMP(K) =     0.72  PRESS =     0.0
 Etot   =       518.4385  EKtot   =       254.4308  EPtot      =       451.1573
 BOND   =        28.8121  ANGLE   =        40.8941  DIHED      =        18.8707
 UB     =         0.0000  IMP     =         0.0000  CMAP       =         6.7498
 1-4 NB =        13.7624  1-4 EEL =        39.4675  VDWAALS    =       521.9156
 EELEC  =       751.6869  EHBOND  =         0.0000  RESTRAINT  =        18.9968
 EAMBER (non-restraint)  =       432.1605
 EKCMT  =         0.0000  VIRIAL  =         0.0000  VOLUME     =      7484.8399
                                                    Density    =         0.0041
 Ewald error estimate:   0.4098E-04
 ------------------------------------------------------------------------------
