-------------------------------------------------------
          Amber 18 PMEMD                              2018
          -------------------------------------------------------

  [-O]verwriting output

File Assignments:

 Here is the input file:

1 ns solute restrained NPT equilibration using Langevin thermostat and MC baros
&cntrl
  irest     = 1,
  ntx       = 5,
  ig        = -1,
  dt        = 0.002,
  nstlim    = 500000,
  nscm      = 500,
  ntr       = 1,
  restraint_wt  = 1.0,
  restraintmask = '!:WAT & !@H',
  ntb       = 2,
  ntp       = 1,
  barostat  = 2,
  pres0     = 1.0,
  mcbarint  = 100,
  comp      = 44.6,
  taup      = 1.0,
  ntt       = 3,
  temp0     = 298.0,
  gamma_ln  = 1.0,
  ntf       = 2,
  ntc       = 2,
  cut       = 10.0,
  ntpr      = 500,
  ntxo      = 2,
  ntwr      = 500000,
  ioutfm    = 1,
  ntwx      = 500,
  iwrap     = 1,
&end

Note: ig = -1. Setting random seed to   313359 based on wallclock time in
      microseconds and disabling the synchronization of random numbers
      between tasks to improve performance.

--------------------------------------------------------------------------------
   1.  RESOURCE   USE:
--------------------------------------------------------------------------------

 getting box info from netcdf restart file
 NATOM  =  232084 NTYPES =      30 NBONH =  172451 MBONA  =   59446
 NTHETH =    6665 MTHETA =    3969 NPHIH =   13497 MPHIA  =   12678
 NHPARM =       0 NPARM  =       0 NNB   =  427955 NRES   =   57104
 NBONA  =   59446 NTHETA =    3969 NPHIA =   12678 NUMBND =      97
 NUMANG =     211 NPTRA  =     215 NATYP =      55 NPHB   =       0
 IFBOX  =       2 NMXRS  =      36 IFCAP =       0 NEXTRA =   56506
 NCOPY  =       0

     BOX TYPE: TRUNCATED OCTAHEDRON

--------------------------------------------------------------------------------
   2.  CONTROL  DATA  FOR  THE  RUN
--------------------------------------------------------------------------------

default_name

General flags:
     imin    =       0, nmropt  =       0

Nature and format of input:
     ntx     =       5, irest   =       1, ntrx    =       1

Nature and format of output:
     ntxo    =       2, ntpr    =     500, ntrx    =       1, ntwr    =  500000
     iwrap   =       1, ntwx    =     500, ntwv    =       0, ntwe    =       0
     ioutfm  =       1, ntwprt  =       0, idecomp =       0, rbornstat=      0

Potential function:
     ntf     =       2, ntb     =       2, igb     =       0, nsnb    =      25
     ipol    =       0, gbsa    =       0, iesp    =       0
     dielc   =   1.00000, cut     =  10.00000, intdiel =   1.00000

Frozen or restrained atoms:
     ibelly  =       0, ntr     =       1
     restraint_wt =   1.00000

Molecular dynamics:
     nstlim  =    500000, nscm    =         0, nrespa  =         1
     t       =   0.00000, dt      =   0.00200, vlimit  =  20.00000

Langevin dynamics temperature regulation:
     ig      =  313359
     temp0   = 298.00000, tempi   =   0.00000, gamma_ln=   1.00000

Pressure regulation:
     ntp     =       1
     pres0   =   1.00000, comp    =  44.60000, taup    =   1.00000
     Monte-Carlo Barostat:
     mcbarint  =     100

SHAKE:
     ntc     =       2, jfastw  =       0
     tol     =   0.00001

Extra-points options:
     frameon =       1, chngmask=       1

Ewald parameters:
     verbose =       0, ew_type =       0, nbflag  =       1, use_pme =       1
     vdwmeth =       1, eedmeth =       1, netfrc  =       1
     Box X =  134.876   Box Y =  134.876   Box Z =  134.876
     Alpha =  109.471   Beta  =  109.471   Gamma =  109.471
     NFFT1 =  144       NFFT2 =  135       NFFT3 =  135
     Cutoff=   10.000   Tol   =0.100E-04
     Ewald Coefficient =  0.27511
     Interpolation order =    4

    LOADING THE CONSTRAINED ATOMS AS GROUPS

   5.  REFERENCE ATOM COORDINATES

  default_name
     Mask !:WAT & !@H; matches  5706 atoms

--------------------------------------------------------------------------------
   3.  ATOMIC COORDINATES AND VELOCITIES
--------------------------------------------------------------------------------

default_name
 begin time read from input coords =    20.000 ps

 Number of triangulated 3-point waters found:    56506

     Sum of charges from parm topology file =   0.00030996
     Forcing neutrality...

--------------------------------------------------------------------------------
   4.  RESULTS
 NSTEP =      500   TIME(PS) =      21.000  TEMP(K) =   298.90  PRESS =     0.0
 Etot   =   -616642.3250  EKtot   =    105216.2015  EPtot      =   -721858.5265
 BOND   =      1091.4716  ANGLE   =      2972.0433  DIHED      =      2025.1442
 UB     =         0.0000  IMP     =         0.0000  CMAP       =       324.5251
 1-4 NB =      1272.5482  1-4 EEL =     13026.9637  VDWAALS    =    104322.4580
 EELEC  =   -847532.4027  EHBOND  =         0.0000  RESTRAINT  =       638.7221
 EAMBER (non-restraint)  =   -722497.2486
 EKCMT  =         0.0000  VIRIAL  =         0.0000  VOLUME     =   1861078.9373
                                                    Density    =         0.9512
 Ewald error estimate:   0.2496E-04
 ------------------------------------------------------------------------------

      A V E R A G E S   O V E R    1000 S T E P S

 NSTEP =   500000   TIME(PS) =    1020.000  TEMP(K) =   298.05  PRESS =     0.0
 Etot   =   -619875.1650  EKtot   =    104919.2297  EPtot      =   -724794.3947
 BOND   =      1110.9140  ANGLE   =      2923.2938  DIHED      =      2028.6641
 UB     =         0.0000  IMP     =         0.0000  CMAP       =       329.8274
 1-4 NB =      1283.0542  1-4 EEL =     13042.4769  VDWAALS    =    103174.6173
 EELEC  =   -849432.0724  EHBOND  =         0.0000  RESTRAINT  =       744.8299
 EAMBER (non-restraint)  =   -725539.2247
 EKCMT  =         0.0000  VIRIAL  =         0.0000  VOLUME     =   1763727.0609
                                                    Density    =         1.0037
 Ewald error estimate:   0.5566E-04
 ------------------------------------------------------------------------------

      R M S  F L U C T U A T I O N S

 NSTEP =   500000   TIME(PS) =    1020.000  TEMP(K) =     0.76  PRESS =     0.0
 Etot   =       538.3094  EKtot   =       267.0770  EPtot      =       443.2865
 BOND   =        28.2174  ANGLE   =        40.9695  DIHED      =        18.9916
 UB     =         0.0000  IMP     =         0.0000  CMAP       =         6.8092
 1-4 NB =        14.1585  1-4 EEL =        38.6685  VDWAALS    =       456.5070
 EELEC  =       712.1070  EHBOND  =         0.0000  RESTRAINT  =        18.3149
 EAMBER (non-restraint)  =       424.9715
 EKCMT  =         0.0000  VIRIAL  =         0.0000  VOLUME     =      6637.1674
                                                    Density    =         0.0037
 Ewald error estimate:   0.4043E-04
 ------------------------------------------------------------------------------
