-------------------------------------------------------
          Amber 18 PMEMD                              2018
          -------------------------------------------------------

  [-O]verwriting output

File Assignments:

 Here is the input file:

20 ps solute restrained NVT equilibration using Langevin thermostat
&cntrl
  irest     = 0,
  ntx       = 1,
  ig        = -1,
  dt        = 0.002,
  nstlim    = 10000,
  nscm      = 500,
  ntr       = 1,
  restraint_wt  = 1.0,
  restraintmask = '!:WAT & !@H',
  ntb       = 1,
  ntp       = 0,
  ntt       = 3,
  tempi     = 298.0,
  temp0     = 298.0,
  gamma_ln  = 1.0,
  ntf       = 2,
  ntc       = 2,
  cut       = 10.0,
  ntpr      = 500,
  ntxo      = 2,
  ntwr      = 10000,
  ioutfm    = 1,
  ntwx      = 500,
  iwrap     = 1,
&end

Note: ig = -1. Setting random seed to   741920 based on wallclock time in
      microseconds and disabling the synchronization of random numbers
      between tasks to improve performance.

--------------------------------------------------------------------------------
   1.  RESOURCE   USE:
--------------------------------------------------------------------------------

 getting box info from netcdf restart file
 NATOM  =   73422 NTYPES =      21 NBONH =   53623 MBONA  =   19841
 NTHETH =    6629 MTHETA =    3974 NPHIH =   13450 MPHIA  =   12677
 NHPARM =       0 NPARM  =       0 NNB   =  150392 NRES   =   17271
 NBONA  =   19841 NTHETA =    3974 NPHIA =   12677 NUMBND =      93
 NUMANG =     213 NPTRA  =     223 NATYP =      47 NPHB   =       0
 IFBOX  =       2 NMXRS  =      39 IFCAP =       0 NEXTRA =   16902
 NCOPY  =       0

     BOX TYPE: TRUNCATED OCTAHEDRON

--------------------------------------------------------------------------------
   2.  CONTROL  DATA  FOR  THE  RUN
--------------------------------------------------------------------------------

default_name

General flags:
     imin    =       0, nmropt  =       0

Nature and format of input:
     ntx     =       1, irest   =       0, ntrx    =       1

Nature and format of output:
     ntxo    =       2, ntpr    =     500, ntrx    =       1, ntwr    =   10000
     iwrap   =       1, ntwx    =     500, ntwv    =       0, ntwe    =       0
     ioutfm  =       1, ntwprt  =       0, idecomp =       0, rbornstat=      0

Potential function:
     ntf     =       2, ntb     =       1, igb     =       0, nsnb    =      25
     ipol    =       0, gbsa    =       0, iesp    =       0
     dielc   =   1.00000, cut     =  10.00000, intdiel =   1.00000

Frozen or restrained atoms:
     ibelly  =       0, ntr     =       1
     restraint_wt =   1.00000

Molecular dynamics:
     nstlim  =     10000, nscm    =         0, nrespa  =         1
     t       =   0.00000, dt      =   0.00200, vlimit  =  20.00000

Langevin dynamics temperature regulation:
     ig      =  741920
     temp0   = 298.00000, tempi   = 298.00000, gamma_ln=   1.00000

SHAKE:
     ntc     =       2, jfastw  =       0
     tol     =   0.00001

Extra-points options:
     frameon =       1, chngmask=       1

Ewald parameters:
     verbose =       0, ew_type =       0, nbflag  =       1, use_pme =       1
     vdwmeth =       1, eedmeth =       1, netfrc  =       1
     Box X =   93.714   Box Y =   93.714   Box Z =   93.714
     Alpha =  109.471   Beta  =  109.471   Gamma =  109.471
     NFFT1 =   96       NFFT2 =   96       NFFT3 =   96
     Cutoff=   10.000   Tol   =0.100E-04
     Ewald Coefficient =  0.27511
     Interpolation order =    4

    LOADING THE CONSTRAINED ATOMS AS GROUPS

   5.  REFERENCE ATOM COORDINATES

  default_name
     Mask !:WAT & !@H; matches  5461 atoms

--------------------------------------------------------------------------------
   3.  ATOMIC COORDINATES AND VELOCITIES
--------------------------------------------------------------------------------

default_name
 begin time read from input coords =     0.000 ps

 Number of triangulated 3-point waters found:    16902

     Sum of charges from parm topology file =   0.00009263
     Forcing neutrality...

--------------------------------------------------------------------------------
   4.  RESULTS
 NSTEP =        0   TIME(PS) =       0.000  TEMP(K) =   437.75  PRESS =     0.0
 Etot   =   -314283.7974  EKtot   =     50425.9674  EPtot      =   -364709.7649
 BOND   =       237.4731  ANGLE   =       855.6506  DIHED      =      1672.6646
 UB     =         0.0000  IMP     =         0.0000  CMAP       =       278.4568
 1-4 NB =      1106.3904  1-4 EEL =     12492.6792  VDWAALS    =     67752.2347
 EELEC  =   -449105.3142  EHBOND  =         0.0000  RESTRAINT  =         0.0000
 Ewald error estimate:   0.1689E-03
 ------------------------------------------------------------------------------

      A V E R A G E S   O V E R      20 S T E P S

 NSTEP =    10000   TIME(PS) =      20.000  TEMP(K) =   294.21  PRESS =     0.0
 Etot   =   -184589.9125  EKtot   =     33891.6180  EPtot      =   -218481.5305
 BOND   =      1112.5167  ANGLE   =      2970.4649  DIHED      =      2110.7110
 UB     =         0.0000  IMP     =         0.0000  CMAP       =       298.6790
 1-4 NB =      1268.5035  1-4 EEL =     12462.1711  VDWAALS    =     26763.3834
 EELEC  =   -265895.3745  EHBOND  =         0.0000  RESTRAINT  =       427.4144
 EAMBER (non-restraint)  =   -218908.9449
 Ewald error estimate:   0.9149E-04
 ------------------------------------------------------------------------------

      R M S  F L U C T U A T I O N S

 NSTEP =    10000   TIME(PS) =      20.000  TEMP(K) =     9.76  PRESS =     0.0
 Etot   =      2606.9087  EKtot   =      1124.1910  EPtot      =      1500.8589
 BOND   =        50.2388  ANGLE   =        92.1394  DIHED      =        30.2898
 UB     =         0.0000  IMP     =         0.0000  CMAP       =         6.1765
 1-4 NB =        16.2291  1-4 EEL =        34.7698  VDWAALS    =       791.1035
 EELEC  =      2117.9159  EHBOND  =         0.0000  RESTRAINT  =        19.5236
 EAMBER (non-restraint)  =      1481.3353
 Ewald error estimate:   0.7322E-04
 ------------------------------------------------------------------------------
