-------------------------------------------------------
          Amber 22 PMEMD                              2022
          -------------------------------------------------------

  [-O]verwriting output

File Assignments:

 Here is the input file:

20 ps solute restrained NVT equilibration using Langevin thermostat
&cntrl
  irest     = 0,
  ntx       = 1,
  ig        = -1,
  dt        = 0.002,
  nstlim    = 10000,
  nscm      = 500,
  ntr       = 1,
  restraint_wt  = 1.0,
  restraintmask = '!:WAT & !@H',
  ntb       = 1,
  ntp       = 0,
  ntt       = 3,
  tempi     = 298.0,
  temp0     = 298.0,
  gamma_ln  = 1.0,
  ntf       = 2,
  ntc       = 2,
  cut       = 10.0,
  ntpr      = 500,
  ntxo      = 2,
  ntwr      = 10000,
  ioutfm    = 1,
  ntwx      = 500,
  iwrap     = 1,
&end

Note: ig = -1. Setting random seed to   227641 based on wallclock time in
      microseconds and disabling the synchronization of random numbers
      between tasks to improve performance.

--------------------------------------------------------------------------------
   1.  RESOURCE   USE:
--------------------------------------------------------------------------------

 getting box info from netcdf restart file
 NATOM  =  146927 NTYPES =      23 NBONH =  108670 MBONA  =   38147
 NTHETH =    6538 MTHETA =    3894 NPHIH =   13247 MPHIA  =   12422
 NHPARM =       0 NPARM  =       0 NNB   =  278554 NRES   =   35776
 NBONA  =   38147 NTHETA =    3894 NPHIA =   12422 NUMBND =      88
 NUMANG =     195 NPTRA  =     208 NATYP =      47 NPHB   =       0
 IFBOX  =       2 NMXRS  =      39 IFCAP =       0 NEXTRA =   35264
 NCOPY  =       0

     BOX TYPE: TRUNCATED OCTAHEDRON

--------------------------------------------------------------------------------
   2.  CONTROL  DATA  FOR  THE  RUN
--------------------------------------------------------------------------------

default_name

General flags:
     imin    =       0, nmropt  =       0

Nature and format of input:
     ntx     =       1, irest   =       0, ntrx    =       1

Nature and format of output:
     ntxo    =       2, ntpr    =     500, ntrx    =       1, ntwr    =   10000
     iwrap   =       1, ntwx    =     500, ntwv    =       0, ntwe    =       0
     ioutfm  =       1, ntwprt  =       0, idecomp =       0, rbornstat=      0

Potential function:
     ntf     =       2, ntb     =       1, igb     =       0, nsnb    =      25
     ipol    =       0, gbsa    =       0, iesp    =       0
     dielc   =   1.00000, cut     =  10.00000, intdiel =   1.00000

Frozen or restrained atoms:
     ibelly  =       0, ntr     =       1
     restraint_wt =   1.00000

Molecular dynamics:
     nstlim  =     10000, nscm    =         0, nrespa  =         1
     t       =   0.00000, dt      =   0.00200, vlimit  =  20.00000

Langevin dynamics temperature regulation:
     ig      =  227641
     temp0   = 298.00000, tempi   = 298.00000, gamma_ln=   1.00000

SHAKE:
     ntc     =       2, jfastw  =       0
     tol     =   0.00001

Extra-points options:
     frameon =       1, chngmask=       1

Ewald parameters:
     verbose =       0, ew_type =       0, nbflag  =       1, use_pme =       1
     vdwmeth =       1, eedmeth =       1, netfrc  =       1
     Box X =  116.359   Box Y =  116.359   Box Z =  116.359
     Alpha =  109.471   Beta  =  109.471   Gamma =  109.471
     NFFT1 =  120       NFFT2 =  120       NFFT3 =  120
     Cutoff=   10.000   Tol   =0.100E-04
     Ewald Coefficient =  0.27511
     Interpolation order =    4

    LOADING THE CONSTRAINED ATOMS AS GROUPS

   5.  REFERENCE ATOM COORDINATES

  default_name
     Mask !:WAT & !@H; matches  5523 atoms

--------------------------------------------------------------------------------
   3.  ATOMIC COORDINATES AND VELOCITIES
--------------------------------------------------------------------------------

default_name
 begin time read from input coords =     0.000 ps

 Number of triangulated 3-point waters found:    35264

     Sum of charges from parm topology file =   0.00019338
     Forcing neutrality...

--------------------------------------------------------------------------------
   4.  RESULTS
 NSTEP =        0   TIME(PS) =       0.000  TEMP(K) =   440.33  PRESS =     0.0
 Etot   =   -662343.1727  EKtot   =     99015.9420  EPtot      =   -761359.1147
 BOND   =       243.9306  ANGLE   =       836.0422  DIHED      =      1591.6677
 UB     =         0.0000  IMP     =         0.0000  CMAP       =       284.1768
 1-4 NB =      1080.8436  1-4 EEL =     12154.4816  VDWAALS    =    143107.3053
 EELEC  =   -920657.5625  EHBOND  =         0.0000  RESTRAINT  =         0.0000
 Ewald error estimate:   0.1637E-03
 ------------------------------------------------------------------------------

      A V E R A G E S   O V E R      20 S T E P S

 NSTEP =    10000   TIME(PS) =      20.000  TEMP(K) =   294.08  PRESS =     0.0
 Etot   =   -392815.4169  EKtot   =     66130.4623  EPtot      =   -458945.8792
 BOND   =      1110.9386  ANGLE   =      2920.6054  DIHED      =      2026.5619
 UB     =         0.0000  IMP     =         0.0000  CMAP       =       308.0886
 1-4 NB =      1238.0684  1-4 EEL =     12130.5517  VDWAALS    =     60879.7564
 EELEC  =   -540105.7852  EHBOND  =         0.0000  RESTRAINT  =       545.3351
 EAMBER (non-restraint)  =   -459491.2143
 Ewald error estimate:   0.6066E-04
 ------------------------------------------------------------------------------

      R M S  F L U C T U A T I O N S

 NSTEP =    10000   TIME(PS) =      20.000  TEMP(K) =    10.30  PRESS =     0.0
 Etot   =      5864.2404  EKtot   =      2316.9630  EPtot      =      3557.6975
 BOND   =        42.8248  ANGLE   =        87.5166  DIHED      =        22.8720
 UB     =         0.0000  IMP     =         0.0000  CMAP       =         6.2236
 1-4 NB =        12.1895  1-4 EEL =        40.8719  VDWAALS    =      1918.5499
 EELEC  =      5312.2348  EHBOND  =         0.0000  RESTRAINT  =        30.4999
 EAMBER (non-restraint)  =      3527.1976
 Ewald error estimate:   0.5980E-04
 ------------------------------------------------------------------------------
