-------------------------------------------------------
          Amber 22 PMEMD                              2022
          -------------------------------------------------------

  [-O]verwriting output

File Assignments:

 Here is the input file:

1 ns solute restrained NPT equilibration using Langevin thermostat and MC baros
&cntrl
  irest     = 1,
  ntx       = 5,
  ig        = -1,
  dt        = 0.002,
  nstlim    = 500000,
  nscm      = 500,
  ntr       = 1,
  restraint_wt  = 1.0,
  restraintmask = '!:WAT & !@H',
  ntb       = 2,
  ntp       = 1,
  barostat  = 2,
  pres0     = 1.0,
  mcbarint  = 100,
  comp      = 44.6,
  taup      = 1.0,
  ntt       = 3,
  temp0     = 298.0,
  gamma_ln  = 1.0,
  ntf       = 2,
  ntc       = 2,
  cut       = 10.0,
  ntpr      = 500,
  ntxo      = 2,
  ntwr      = 500000,
  ioutfm    = 1,
  ntwx      = 500,
  iwrap     = 1,
&end

Note: ig = -1. Setting random seed to   204143 based on wallclock time in
      microseconds and disabling the synchronization of random numbers
      between tasks to improve performance.

--------------------------------------------------------------------------------
   1.  RESOURCE   USE:
--------------------------------------------------------------------------------

 getting box info from netcdf restart file
 NATOM  =  146927 NTYPES =      23 NBONH =  108670 MBONA  =   38147
 NTHETH =    6538 MTHETA =    3894 NPHIH =   13247 MPHIA  =   12422
 NHPARM =       0 NPARM  =       0 NNB   =  278554 NRES   =   35776
 NBONA  =   38147 NTHETA =    3894 NPHIA =   12422 NUMBND =      88
 NUMANG =     195 NPTRA  =     208 NATYP =      47 NPHB   =       0
 IFBOX  =       2 NMXRS  =      39 IFCAP =       0 NEXTRA =   35264
 NCOPY  =       0

     BOX TYPE: TRUNCATED OCTAHEDRON

--------------------------------------------------------------------------------
   2.  CONTROL  DATA  FOR  THE  RUN
--------------------------------------------------------------------------------

default_name

General flags:
     imin    =       0, nmropt  =       0

Nature and format of input:
     ntx     =       5, irest   =       1, ntrx    =       1

Nature and format of output:
     ntxo    =       2, ntpr    =     500, ntrx    =       1, ntwr    =  500000
     iwrap   =       1, ntwx    =     500, ntwv    =       0, ntwe    =       0
     ioutfm  =       1, ntwprt  =       0, idecomp =       0, rbornstat=      0

Potential function:
     ntf     =       2, ntb     =       2, igb     =       0, nsnb    =      25
     ipol    =       0, gbsa    =       0, iesp    =       0
     dielc   =   1.00000, cut     =  10.00000, intdiel =   1.00000

Frozen or restrained atoms:
     ibelly  =       0, ntr     =       1
     restraint_wt =   1.00000

Molecular dynamics:
     nstlim  =    500000, nscm    =         0, nrespa  =         1
     t       =   0.00000, dt      =   0.00200, vlimit  =  20.00000

Langevin dynamics temperature regulation:
     ig      =  204143
     temp0   = 298.00000, tempi   =   0.00000, gamma_ln=   1.00000

Pressure regulation:
     ntp     =       1
     pres0   =   1.00000, comp    =  44.60000, taup    =   1.00000
     Monte-Carlo Barostat:
     mcbarint  =     100

SHAKE:
     ntc     =       2, jfastw  =       0
     tol     =   0.00001

Extra-points options:
     frameon =       1, chngmask=       1

Ewald parameters:
     verbose =       0, ew_type =       0, nbflag  =       1, use_pme =       1
     vdwmeth =       1, eedmeth =       1, netfrc  =       1
     Box X =  116.359   Box Y =  116.359   Box Z =  116.359
     Alpha =  109.471   Beta  =  109.471   Gamma =  109.471
     NFFT1 =  120       NFFT2 =  120       NFFT3 =  120
     Cutoff=   10.000   Tol   =0.100E-04
     Ewald Coefficient =  0.27511
     Interpolation order =    4

    LOADING THE CONSTRAINED ATOMS AS GROUPS

   5.  REFERENCE ATOM COORDINATES

  default_name
     Mask !:WAT & !@H; matches  5523 atoms

--------------------------------------------------------------------------------
   3.  ATOMIC COORDINATES AND VELOCITIES
--------------------------------------------------------------------------------

default_name
 begin time read from input coords =    20.000 ps

 Number of triangulated 3-point waters found:    35264

     Sum of charges from parm topology file =   0.00019338
     Forcing neutrality...

--------------------------------------------------------------------------------
   4.  RESULTS
 NSTEP =      500   TIME(PS) =      21.000  TEMP(K) =   297.99  PRESS =     0.0
 Etot   =   -391383.6044  EKtot   =     67009.6759  EPtot      =   -458393.2803
 BOND   =      1116.1385  ANGLE   =      2953.9977  DIHED      =      2030.6584
 UB     =         0.0000  IMP     =         0.0000  CMAP       =       311.5873
 1-4 NB =      1241.8320  1-4 EEL =     12148.9802  VDWAALS    =     61402.8684
 EELEC  =   -540131.1689  EHBOND  =         0.0000  RESTRAINT  =       531.8261
 EAMBER (non-restraint)  =   -458925.1064
 EKCMT  =         0.0000  VIRIAL  =         0.0000  VOLUME     =   1193657.7466
                                                    Density    =         0.9464
 Ewald error estimate:   0.6030E-04
 ------------------------------------------------------------------------------

      A V E R A G E S   O V E R    1000 S T E P S

 NSTEP =   500000   TIME(PS) =    1020.000  TEMP(K) =   298.07  PRESS =     0.0
 Etot   =   -394456.5543  EKtot   =     67026.4617  EPtot      =   -461483.0160
 BOND   =      1111.5254  ANGLE   =      2936.9097  DIHED      =      2027.5547
 UB     =         0.0000  IMP     =         0.0000  CMAP       =       311.1275
 1-4 NB =      1252.9695  1-4 EEL =     12132.3659  VDWAALS    =     60403.1459
 EELEC  =   -542316.6074  EHBOND  =         0.0000  RESTRAINT  =       657.9928
 EAMBER (non-restraint)  =   -462141.0087
 EKCMT  =         0.0000  VIRIAL  =         0.0000  VOLUME     =   1111627.9651
                                                    Density    =         1.0162
 Ewald error estimate:   0.6432E-04
 ------------------------------------------------------------------------------

      R M S  F L U C T U A T I O N S

 NSTEP =   500000   TIME(PS) =    1020.000  TEMP(K) =     0.95  PRESS =     0.0
 Etot   =       442.8250  EKtot   =       214.0965  EPtot      =       376.8397
 BOND   =        28.3765  ANGLE   =        41.0798  DIHED      =        18.0656
 UB     =         0.0000  IMP     =         0.0000  CMAP       =         6.6111
 1-4 NB =        13.6704  1-4 EEL =        40.2282  VDWAALS    =       368.5674
 EELEC  =       565.3112  EHBOND  =         0.0000  RESTRAINT  =        17.7986
 EAMBER (non-restraint)  =       359.0411
 EKCMT  =         0.0000  VIRIAL  =         0.0000  VOLUME     =      5629.6940
                                                    Density    =         0.0049
 Ewald error estimate:   0.4834E-04
 ------------------------------------------------------------------------------
