-------------------------------------------------------
          Amber 18 PMEMD                              2018
          -------------------------------------------------------

  [-O]verwriting output

File Assignments:

 Here is the input file:

20 ps solute restrained NVT equilibration using Langevin thermostat
&cntrl
  irest     = 0,
  ntx       = 1,
  ig        = -1,
  dt        = 0.002,
  nstlim    = 10000,
  nscm      = 500,
  ntr       = 1,
  restraint_wt  = 1.0,
  restraintmask = '!:WAT & !@H',
  ntb       = 1,
  ntp       = 0,
  ntt       = 3,
  tempi     = 298.0,
  temp0     = 298.0,
  gamma_ln  = 1.0,
  ntf       = 2,
  ntc       = 2,
  cut       = 10.0,
  ntpr      = 500,
  ntxo      = 2,
  ntwr      = 10000,
  ioutfm    = 1,
  ntwx      = 500,
  iwrap     = 1,
&end

Note: ig = -1. Setting random seed to   642383 based on wallclock time in
      microseconds and disabling the synchronization of random numbers
      between tasks to improve performance.

--------------------------------------------------------------------------------
   1.  RESOURCE   USE:
--------------------------------------------------------------------------------

 getting box info from netcdf restart file
 NATOM  =  113275 NTYPES =      21 NBONH =   83509 MBONA  =   29808
 NTHETH =    6658 MTHETA =    3985 NPHIH =   13497 MPHIA  =   12707
 NHPARM =       0 NPARM  =       0 NNB   =  220217 NRES   =   27230
 NBONA  =   29808 NTHETA =    3985 NPHIA =   12707 NUMBND =      94
 NUMANG =     214 NPTRA  =     223 NATYP =      47 NPHB   =       0
 IFBOX  =       2 NMXRS  =      39 IFCAP =       0 NEXTRA =   26860
 NCOPY  =       0

     BOX TYPE: TRUNCATED OCTAHEDRON

--------------------------------------------------------------------------------
   2.  CONTROL  DATA  FOR  THE  RUN
--------------------------------------------------------------------------------

default_name

General flags:
     imin    =       0, nmropt  =       0

Nature and format of input:
     ntx     =       1, irest   =       0, ntrx    =       1

Nature and format of output:
     ntxo    =       2, ntpr    =     500, ntrx    =       1, ntwr    =   10000
     iwrap   =       1, ntwx    =     500, ntwv    =       0, ntwe    =       0
     ioutfm  =       1, ntwprt  =       0, idecomp =       0, rbornstat=      0

Potential function:
     ntf     =       2, ntb     =       1, igb     =       0, nsnb    =      25
     ipol    =       0, gbsa    =       0, iesp    =       0
     dielc   =   1.00000, cut     =  10.00000, intdiel =   1.00000

Frozen or restrained atoms:
     ibelly  =       0, ntr     =       1
     restraint_wt =   1.00000

Molecular dynamics:
     nstlim  =     10000, nscm    =         0, nrespa  =         1
     t       =   0.00000, dt      =   0.00200, vlimit  =  20.00000

Langevin dynamics temperature regulation:
     ig      =  642383
     temp0   = 298.00000, tempi   = 298.00000, gamma_ln=   1.00000

SHAKE:
     ntc     =       2, jfastw  =       0
     tol     =   0.00001

Extra-points options:
     frameon =       1, chngmask=       1

Ewald parameters:
     verbose =       0, ew_type =       0, nbflag  =       1, use_pme =       1
     vdwmeth =       1, eedmeth =       1, netfrc  =       1
     Box X =  107.227   Box Y =  107.227   Box Z =  107.227
     Alpha =  109.471   Beta  =  109.471   Gamma =  109.471
     NFFT1 =  108       NFFT2 =  108       NFFT3 =  108
     Cutoff=   10.000   Tol   =0.100E-04
     Ewald Coefficient =  0.27511
     Interpolation order =    4

    LOADING THE CONSTRAINED ATOMS AS GROUPS

   5.  REFERENCE ATOM COORDINATES

  default_name
     Mask !:WAT & !@H; matches  5481 atoms

--------------------------------------------------------------------------------
   3.  ATOMIC COORDINATES AND VELOCITIES
--------------------------------------------------------------------------------

default_name
 begin time read from input coords =     0.000 ps

 Number of triangulated 3-point waters found:    26860

     Sum of charges from parm topology file =   0.00014727
     Forcing neutrality...

--------------------------------------------------------------------------------
   4.  RESULTS
 NSTEP =        0   TIME(PS) =       0.000  TEMP(K) =   439.59  PRESS =     0.0
 Etot   =   -496244.6545  EKtot   =     76756.9323  EPtot      =   -573001.5868
 BOND   =       246.0270  ANGLE   =       844.5852  DIHED      =      1621.1162
 UB     =         0.0000  IMP     =         0.0000  CMAP       =       290.4511
 1-4 NB =      1105.9194  1-4 EEL =     12626.0872  VDWAALS    =    109548.8997
 EELEC  =   -699284.6727  EHBOND  =         0.0000  RESTRAINT  =         0.0000
 Ewald error estimate:   0.1783E-03
 ------------------------------------------------------------------------------

      A V E R A G E S   O V E R      20 S T E P S

 NSTEP =    10000   TIME(PS) =      20.000  TEMP(K) =   294.33  PRESS =     0.0
 Etot   =   -289795.3858  EKtot   =     51392.5273  EPtot      =   -341187.9131
 BOND   =      1125.2315  ANGLE   =      2964.0731  DIHED      =      2073.4872
 UB     =         0.0000  IMP     =         0.0000  CMAP       =       313.9750
 1-4 NB =      1272.2977  1-4 EEL =     12604.5662  VDWAALS    =     44945.6213
 EELEC  =   -406917.5977  EHBOND  =         0.0000  RESTRAINT  =       430.4327
 EAMBER (non-restraint)  =   -341618.3458
 Ewald error estimate:   0.6469E-04
 ------------------------------------------------------------------------------

      R M S  F L U C T U A T I O N S

 NSTEP =    10000   TIME(PS) =      20.000  TEMP(K) =    10.19  PRESS =     0.0
 Etot   =      4363.8732  EKtot   =      1779.4110  EPtot      =      2603.0277
 BOND   =        39.3331  ANGLE   =        91.1346  DIHED      =        20.2170
 UB     =         0.0000  IMP     =         0.0000  CMAP       =         8.2653
 1-4 NB =        17.9454  1-4 EEL =        34.8598  VDWAALS    =      1433.8423
 EELEC  =      3847.7903  EHBOND  =         0.0000  RESTRAINT  =        24.2785
 EAMBER (non-restraint)  =      2578.7492
 Ewald error estimate:   0.4802E-04
 ------------------------------------------------------------------------------
