-------------------------------------------------------
          Amber 18 PMEMD                              2018
          -------------------------------------------------------

  [-O]verwriting output

File Assignments:

 Here is the input file:

1 ns solute restrained NPT equilibration using Langevin thermostat and MC baros
&cntrl
  irest     = 1,
  ntx       = 5,
  ig        = -1,
  dt        = 0.002,
  nstlim    = 500000,
  nscm      = 500,
  ntr       = 1,
  restraint_wt  = 1.0,
  restraintmask = '!:WAT & !@H',
  ntb       = 2,
  ntp       = 1,
  barostat  = 2,
  pres0     = 1.0,
  mcbarint  = 100,
  comp      = 44.6,
  taup      = 1.0,
  ntt       = 3,
  temp0     = 298.0,
  gamma_ln  = 1.0,
  ntf       = 2,
  ntc       = 2,
  cut       = 10.0,
  ntpr      = 500,
  ntxo      = 2,
  ntwr      = 500000,
  ioutfm    = 1,
  ntwx      = 500,
  iwrap     = 1,
&end

Note: ig = -1. Setting random seed to   345505 based on wallclock time in
      microseconds and disabling the synchronization of random numbers
      between tasks to improve performance.

--------------------------------------------------------------------------------
   1.  RESOURCE   USE:
--------------------------------------------------------------------------------

 getting box info from netcdf restart file
 NATOM  =  113275 NTYPES =      21 NBONH =   83509 MBONA  =   29808
 NTHETH =    6658 MTHETA =    3985 NPHIH =   13497 MPHIA  =   12707
 NHPARM =       0 NPARM  =       0 NNB   =  220217 NRES   =   27230
 NBONA  =   29808 NTHETA =    3985 NPHIA =   12707 NUMBND =      94
 NUMANG =     214 NPTRA  =     223 NATYP =      47 NPHB   =       0
 IFBOX  =       2 NMXRS  =      39 IFCAP =       0 NEXTRA =   26860
 NCOPY  =       0

     BOX TYPE: TRUNCATED OCTAHEDRON

--------------------------------------------------------------------------------
   2.  CONTROL  DATA  FOR  THE  RUN
--------------------------------------------------------------------------------

default_name

General flags:
     imin    =       0, nmropt  =       0

Nature and format of input:
     ntx     =       5, irest   =       1, ntrx    =       1

Nature and format of output:
     ntxo    =       2, ntpr    =     500, ntrx    =       1, ntwr    =  500000
     iwrap   =       1, ntwx    =     500, ntwv    =       0, ntwe    =       0
     ioutfm  =       1, ntwprt  =       0, idecomp =       0, rbornstat=      0

Potential function:
     ntf     =       2, ntb     =       2, igb     =       0, nsnb    =      25
     ipol    =       0, gbsa    =       0, iesp    =       0
     dielc   =   1.00000, cut     =  10.00000, intdiel =   1.00000

Frozen or restrained atoms:
     ibelly  =       0, ntr     =       1
     restraint_wt =   1.00000

Molecular dynamics:
     nstlim  =    500000, nscm    =         0, nrespa  =         1
     t       =   0.00000, dt      =   0.00200, vlimit  =  20.00000

Langevin dynamics temperature regulation:
     ig      =  345505
     temp0   = 298.00000, tempi   =   0.00000, gamma_ln=   1.00000

Pressure regulation:
     ntp     =       1
     pres0   =   1.00000, comp    =  44.60000, taup    =   1.00000
     Monte-Carlo Barostat:
     mcbarint  =     100

SHAKE:
     ntc     =       2, jfastw  =       0
     tol     =   0.00001

Extra-points options:
     frameon =       1, chngmask=       1

Ewald parameters:
     verbose =       0, ew_type =       0, nbflag  =       1, use_pme =       1
     vdwmeth =       1, eedmeth =       1, netfrc  =       1
     Box X =  107.227   Box Y =  107.227   Box Z =  107.227
     Alpha =  109.471   Beta  =  109.471   Gamma =  109.471
     NFFT1 =  108       NFFT2 =  108       NFFT3 =  108
     Cutoff=   10.000   Tol   =0.100E-04
     Ewald Coefficient =  0.27511
     Interpolation order =    4

    LOADING THE CONSTRAINED ATOMS AS GROUPS

   5.  REFERENCE ATOM COORDINATES

  default_name
     Mask !:WAT & !@H; matches  5481 atoms

--------------------------------------------------------------------------------
   3.  ATOMIC COORDINATES AND VELOCITIES
--------------------------------------------------------------------------------

default_name
 begin time read from input coords =    20.000 ps

 Number of triangulated 3-point waters found:    26860

     Sum of charges from parm topology file =   0.00014727
     Forcing neutrality...

--------------------------------------------------------------------------------
   4.  RESULTS
 NSTEP =      500   TIME(PS) =      21.000  TEMP(K) =   296.35  PRESS =     0.0
 Etot   =   -288963.1549  EKtot   =     51746.3596  EPtot      =   -340709.5145
 BOND   =      1130.4083  ANGLE   =      3051.3686  DIHED      =      2110.6079
 UB     =         0.0000  IMP     =         0.0000  CMAP       =       318.8419
 1-4 NB =      1281.3743  1-4 EEL =     12644.2140  VDWAALS    =     44943.9621
 EELEC  =   -406659.4997  EHBOND  =         0.0000  RESTRAINT  =       469.2081
 EAMBER (non-restraint)  =   -341178.7226
 EKCMT  =         0.0000  VIRIAL  =         0.0000  VOLUME     =    941396.7946
                                                    Density    =         0.9267
 Ewald error estimate:   0.2232E-05
 ------------------------------------------------------------------------------

      A V E R A G E S   O V E R    1000 S T E P S

 NSTEP =   500000   TIME(PS) =    1020.000  TEMP(K) =   297.99  PRESS =     0.0
 Etot   =   -291863.2551  EKtot   =     52031.8040  EPtot      =   -343895.0591
 BOND   =      1134.4721  ANGLE   =      3001.3282  DIHED      =      2056.2832
 UB     =         0.0000  IMP     =         0.0000  CMAP       =       311.2853
 1-4 NB =      1280.1490  1-4 EEL =     12600.0308  VDWAALS    =     44653.2212
 EELEC  =   -409480.3775  EHBOND  =         0.0000  RESTRAINT  =       548.5487
 EAMBER (non-restraint)  =   -344443.6077
 EKCMT  =         0.0000  VIRIAL  =         0.0000  VOLUME     =    859037.5173
                                                    Density    =         1.0156
 Ewald error estimate:   0.7326E-04
 ------------------------------------------------------------------------------

      R M S  F L U C T U A T I O N S

 NSTEP =   500000   TIME(PS) =    1020.000  TEMP(K) =     1.01  PRESS =     0.0
 Etot   =       362.1191  EKtot   =       175.9589  EPtot      =       337.3764
 BOND   =        28.6904  ANGLE   =        40.3676  DIHED      =        19.0205
 UB     =         0.0000  IMP     =         0.0000  CMAP       =         7.2250
 1-4 NB =        14.1937  1-4 EEL =        40.7407  VDWAALS    =       341.6182
 EELEC  =       494.7112  EHBOND  =         0.0000  RESTRAINT  =        14.5095
 EAMBER (non-restraint)  =       322.8669
 EKCMT  =         0.0000  VIRIAL  =         0.0000  VOLUME     =      6057.7436
                                                    Density    =         0.0067
 Ewald error estimate:   0.5530E-04
 ------------------------------------------------------------------------------
