-------------------------------------------------------
          Amber 18 PMEMD                              2018
          -------------------------------------------------------

  [-O]verwriting output

File Assignments:

 Here is the input file:

1 ns unrestrained NPT equilibration using Langevin thermostat and MC barostat
&cntrl
  irest     = 1,
  ntx       = 5,
  ig        = -1,
  dt        = 0.002,
  nstlim    = 500000,
  nscm      = 500,
  ntr       = 0,
  ntb       = 2,
  ntp       = 1,
  barostat  = 2,
  pres0     = 1.0,
  mcbarint  = 100,
  comp      = 44.6,
  taup      = 1.0,
  ntt       = 3,
  temp0     = 298.0,
  gamma_ln  = 1.0,
  ntf       = 2,
  ntc       = 2,
  cut       = 10.0,
  ntpr      = 500,
  ntxo      = 2,
  ntwr      = 500000,
  ioutfm    = 1,
  ntwx      = 500,
  iwrap     = 1,
&end

Note: ig = -1. Setting random seed to   683474 based on wallclock time in
      microseconds and disabling the synchronization of random numbers
      between tasks to improve performance.

--------------------------------------------------------------------------------
   1.  RESOURCE   USE:
--------------------------------------------------------------------------------

 getting box info from netcdf restart file
 NATOM  =  113275 NTYPES =      21 NBONH =   83509 MBONA  =   29808
 NTHETH =    6658 MTHETA =    3985 NPHIH =   13497 MPHIA  =   12707
 NHPARM =       0 NPARM  =       0 NNB   =  220217 NRES   =   27230
 NBONA  =   29808 NTHETA =    3985 NPHIA =   12707 NUMBND =      94
 NUMANG =     214 NPTRA  =     223 NATYP =      47 NPHB   =       0
 IFBOX  =       2 NMXRS  =      39 IFCAP =       0 NEXTRA =   26860
 NCOPY  =       0

     BOX TYPE: TRUNCATED OCTAHEDRON

--------------------------------------------------------------------------------
   2.  CONTROL  DATA  FOR  THE  RUN
--------------------------------------------------------------------------------

default_name

General flags:
     imin    =       0, nmropt  =       0

Nature and format of input:
     ntx     =       5, irest   =       1, ntrx    =       1

Nature and format of output:
     ntxo    =       2, ntpr    =     500, ntrx    =       1, ntwr    =  500000
     iwrap   =       1, ntwx    =     500, ntwv    =       0, ntwe    =       0
     ioutfm  =       1, ntwprt  =       0, idecomp =       0, rbornstat=      0

Potential function:
     ntf     =       2, ntb     =       2, igb     =       0, nsnb    =      25
     ipol    =       0, gbsa    =       0, iesp    =       0
     dielc   =   1.00000, cut     =  10.00000, intdiel =   1.00000

Frozen or restrained atoms:
     ibelly  =       0, ntr     =       0

Molecular dynamics:
     nstlim  =    500000, nscm    =       500, nrespa  =         1
     t       =   0.00000, dt      =   0.00200, vlimit  =  20.00000

Langevin dynamics temperature regulation:
     ig      =  683474
     temp0   = 298.00000, tempi   =   0.00000, gamma_ln=   1.00000

Pressure regulation:
     ntp     =       1
     pres0   =   1.00000, comp    =  44.60000, taup    =   1.00000
     Monte-Carlo Barostat:
     mcbarint  =     100

SHAKE:
     ntc     =       2, jfastw  =       0
     tol     =   0.00001

Extra-points options:
     frameon =       1, chngmask=       1

Ewald parameters:
     verbose =       0, ew_type =       0, nbflag  =       1, use_pme =       1
     vdwmeth =       1, eedmeth =       1, netfrc  =       1
     Box X =  103.645   Box Y =  103.645   Box Z =  103.645
     Alpha =  109.471   Beta  =  109.471   Gamma =  109.471
     NFFT1 =  108       NFFT2 =  108       NFFT3 =  108
     Cutoff=   10.000   Tol   =0.100E-04
     Ewald Coefficient =  0.27511
     Interpolation order =    4

--------------------------------------------------------------------------------
   3.  ATOMIC COORDINATES AND VELOCITIES
--------------------------------------------------------------------------------

default_name
 begin time read from input coords =  1020.000 ps

 Number of triangulated 3-point waters found:    26860

     Sum of charges from parm topology file =   0.00014727
     Forcing neutrality...

--------------------------------------------------------------------------------
   4.  RESULTS
 NSTEP =      500   TIME(PS) =    1021.000  TEMP(K) =   297.52  PRESS =     0.0
 Etot   =   -292347.9250  EKtot   =     51950.8258  EPtot      =   -344298.7508
 BOND   =      1111.4370  ANGLE   =      3038.3925  DIHED      =      2090.3062
 UB     =         0.0000  IMP     =         0.0000  CMAP       =       326.9356
 1-4 NB =      1307.0883  1-4 EEL =     12650.9363  VDWAALS    =     44748.6849
 EELEC  =   -409572.5317  EHBOND  =         0.0000  RESTRAINT  =         0.0000
 EKCMT  =         0.0000  VIRIAL  =         0.0000  VOLUME     =    857071.3967
                                                    Density    =         1.0179
 Ewald error estimate:   0.2447E-03
 ------------------------------------------------------------------------------

      A V E R A G E S   O V E R    1000 S T E P S

 NSTEP =   500000   TIME(PS) =    2020.000  TEMP(K) =   298.01  PRESS =     0.0
 Etot   =   -292912.8951  EKtot   =     52036.1863  EPtot      =   -344949.0814
 BOND   =      1119.8580  ANGLE   =      2993.4675  DIHED      =      2042.9777
 UB     =         0.0000  IMP     =         0.0000  CMAP       =       319.4739
 1-4 NB =      1296.3503  1-4 EEL =     12656.6566  VDWAALS    =     44629.8362
 EELEC  =   -410007.7017  EHBOND  =         0.0000  RESTRAINT  =         0.0000
 EKCMT  =         0.0000  VIRIAL  =         0.0000  VOLUME     =    855918.0072
                                                    Density    =         1.0192
 Ewald error estimate:   0.7430E-04
 ------------------------------------------------------------------------------

      R M S  F L U C T U A T I O N S

 NSTEP =   500000   TIME(PS) =    2020.000  TEMP(K) =     1.05  PRESS =     0.0
 Etot   =       349.2440  EKtot   =       183.5373  EPtot      =       291.2931
 BOND   =        27.6898  ANGLE   =        45.2924  DIHED      =        24.9834
 UB     =         0.0000  IMP     =         0.0000  CMAP       =        10.1547
 1-4 NB =        14.9036  1-4 EEL =        46.3919  VDWAALS    =       323.0181
 EELEC  =       498.3990  EHBOND  =         0.0000  RESTRAINT  =         0.0000
 EKCMT  =         0.0000  VIRIAL  =         0.0000  VOLUME     =      1171.0955
                                                    Density    =         0.0014
 Ewald error estimate:   0.5533E-04
 ------------------------------------------------------------------------------
